

                          U.S. Geological Survey
        Coupled Groundwater and Surface-water FLOW model (GSFLOW)
                         Version 2.0.0 05/30/2019

    An integration of the Precipitation-Runoff Modeling System (PRMS)
    and the Modular Groundwater Model (MODFLOW-NWT and MODFLOW-2005)


                            MODFLOW-NWT-SWR1 
  U.S. GEOLOGICAL SURVEY MODULAR FINITE-DIFFERENCE GROUNDWATER-FLOW MODEL
                         WITH NEWTON FORMULATION
                         Version 1.1.4 4/01/2018
              BASED ON MODFLOW-2005 Version 1.12.0 02/03/2017
                      SWR1 Version 1.04.0 09/15/2016

 Run start date and time (yyyy/mm/dd hh:mm:ss): 2019/07/16 12:37:22

GSFLOW MODFLOW main            gsflow_modflow             2019-05-10
====================================================================
MODFLOW Packages
====================================================================
UZF-NWT Package                gwf2uzf1_NWT               2017-03-08
SFR-NWT Package                gwf2sfr7_NWT               2017-03-08
====================================================================

Using NAME file: .\Agwater1_low.nam

Using Solver Package: NWT 
 Solving:  Stress period:     1    Time step:     1    Groundwater-Flow Eqn.

Steady state simulation successful, used 7 iterations

 Solving:  Stress period:     2    Time step:     1    Groundwater-Flow Eqn.
 Solving:  Stress period:     2    Time step:     2    Groundwater-Flow Eqn.
 Solving:  Stress period:     2    Time step:     3    Groundwater-Flow Eqn.
 Solving:  Stress period:     2    Time step:     4    Groundwater-Flow Eqn.
 Solving:  Stress period:     2    Time step:     5    Groundwater-Flow Eqn.
 Solving:  Stress period:     2    Time step:     6    Groundwater-Flow Eqn.
 Solving:  Stress period:     2    Time step:     7    Groundwater-Flow Eqn.
 Solving:  Stress period:     2    Time step:     8    Groundwater-Flow Eqn.
 Solving:  Stress period:     2    Time step:     9    Groundwater-Flow Eqn.
 Solving:  Stress period:     2    Time step:    10    Groundwater-Flow Eqn.
 Solving:  Stress period:     2    Time step:    11    Groundwater-Flow Eqn.
 Solving:  Stress period:     2    Time step:    12    Groundwater-Flow Eqn.
 Solving:  Stress period:     2    Time step:    13    Groundwater-Flow Eqn.
 Solving:  Stress period:     2    Time step:    14    Groundwater-Flow Eqn.
 Solving:  Stress period:     2    Time step:    15    Groundwater-Flow Eqn.
 Solving:  Stress period:     2    Time step:    16    Groundwater-Flow Eqn.
 Solving:  Stress period:     2    Time step:    17    Groundwater-Flow Eqn.
 Solving:  Stress period:     2    Time step:    18    Groundwater-Flow Eqn.
 Solving:  Stress period:     2    Time step:    19    Groundwater-Flow Eqn.
 Solving:  Stress period:     2    Time step:    20    Groundwater-Flow Eqn.
 Solving:  Stress period:     2    Time step:    21    Groundwater-Flow Eqn.
 Solving:  Stress period:     2    Time step:    22    Groundwater-Flow Eqn.
 Solving:  Stress period:     2    Time step:    23    Groundwater-Flow Eqn.
 Solving:  Stress period:     2    Time step:    24    Groundwater-Flow Eqn.
 Solving:  Stress period:     2    Time step:    25    Groundwater-Flow Eqn.
 Solving:  Stress period:     2    Time step:    26    Groundwater-Flow Eqn.
 Solving:  Stress period:     2    Time step:    27    Groundwater-Flow Eqn.
 Solving:  Stress period:     2    Time step:    28    Groundwater-Flow Eqn.
 Solving:  Stress period:     2    Time step:    29    Groundwater-Flow Eqn.
 Solving:  Stress period:     2    Time step:    30    Groundwater-Flow Eqn.
 Solving:  Stress period:     3    Time step:     1    Groundwater-Flow Eqn.
 Solving:  Stress period:     3    Time step:     2    Groundwater-Flow Eqn.
 Solving:  Stress period:     3    Time step:     3    Groundwater-Flow Eqn.
 Solving:  Stress period:     3    Time step:     4    Groundwater-Flow Eqn.
 Solving:  Stress period:     3    Time step:     5    Groundwater-Flow Eqn.
 Solving:  Stress period:     3    Time step:     6    Groundwater-Flow Eqn.
 Solving:  Stress period:     3    Time step:     7    Groundwater-Flow Eqn.
 Solving:  Stress period:     3    Time step:     8    Groundwater-Flow Eqn.
 Solving:  Stress period:     3    Time step:     9    Groundwater-Flow Eqn.
 Solving:  Stress period:     3    Time step:    10    Groundwater-Flow Eqn.
 Solving:  Stress period:     3    Time step:    11    Groundwater-Flow Eqn.
 Solving:  Stress period:     3    Time step:    12    Groundwater-Flow Eqn.
 Solving:  Stress period:     3    Time step:    13    Groundwater-Flow Eqn.
 Solving:  Stress period:     3    Time step:    14    Groundwater-Flow Eqn.
 Solving:  Stress period:     3    Time step:    15    Groundwater-Flow Eqn.
 Solving:  Stress period:     3    Time step:    16    Groundwater-Flow Eqn.
 Solving:  Stress period:     3    Time step:    17    Groundwater-Flow Eqn.
 Solving:  Stress period:     3    Time step:    18    Groundwater-Flow Eqn.
 Solving:  Stress period:     3    Time step:    19    Groundwater-Flow Eqn.
 Solving:  Stress period:     3    Time step:    20    Groundwater-Flow Eqn.
 Solving:  Stress period:     3    Time step:    21    Groundwater-Flow Eqn.
 Solving:  Stress period:     3    Time step:    22    Groundwater-Flow Eqn.
 Solving:  Stress period:     3    Time step:    23    Groundwater-Flow Eqn.
 Solving:  Stress period:     3    Time step:    24    Groundwater-Flow Eqn.
 Solving:  Stress period:     3    Time step:    25    Groundwater-Flow Eqn.
 Solving:  Stress period:     3    Time step:    26    Groundwater-Flow Eqn.
 Solving:  Stress period:     3    Time step:    27    Groundwater-Flow Eqn.
 Solving:  Stress period:     3    Time step:    28    Groundwater-Flow Eqn.
 Solving:  Stress period:     3    Time step:    29    Groundwater-Flow Eqn.
 Solving:  Stress period:     3    Time step:    30    Groundwater-Flow Eqn.
 Solving:  Stress period:     4    Time step:     1    Groundwater-Flow Eqn.
 Solving:  Stress period:     4    Time step:     2    Groundwater-Flow Eqn.
 Solving:  Stress period:     4    Time step:     3    Groundwater-Flow Eqn.
 Solving:  Stress period:     4    Time step:     4    Groundwater-Flow Eqn.
 Solving:  Stress period:     4    Time step:     5    Groundwater-Flow Eqn.
 Solving:  Stress period:     4    Time step:     6    Groundwater-Flow Eqn.
 Solving:  Stress period:     4    Time step:     7    Groundwater-Flow Eqn.
 Solving:  Stress period:     4    Time step:     8    Groundwater-Flow Eqn.
 Solving:  Stress period:     4    Time step:     9    Groundwater-Flow Eqn.
 Solving:  Stress period:     4    Time step:    10    Groundwater-Flow Eqn.
 Solving:  Stress period:     4    Time step:    11    Groundwater-Flow Eqn.
 Solving:  Stress period:     4    Time step:    12    Groundwater-Flow Eqn.
 Solving:  Stress period:     4    Time step:    13    Groundwater-Flow Eqn.
 Solving:  Stress period:     4    Time step:    14    Groundwater-Flow Eqn.
 Solving:  Stress period:     4    Time step:    15    Groundwater-Flow Eqn.
 Solving:  Stress period:     4    Time step:    16    Groundwater-Flow Eqn.
 Solving:  Stress period:     4    Time step:    17    Groundwater-Flow Eqn.
 Solving:  Stress period:     4    Time step:    18    Groundwater-Flow Eqn.
 Solving:  Stress period:     4    Time step:    19    Groundwater-Flow Eqn.
 Solving:  Stress period:     4    Time step:    20    Groundwater-Flow Eqn.
 Solving:  Stress period:     4    Time step:    21    Groundwater-Flow Eqn.
 Solving:  Stress period:     4    Time step:    22    Groundwater-Flow Eqn.
 Solving:  Stress period:     4    Time step:    23    Groundwater-Flow Eqn.
 Solving:  Stress period:     4    Time step:    24    Groundwater-Flow Eqn.
 Solving:  Stress period:     4    Time step:    25    Groundwater-Flow Eqn.
 Solving:  Stress period:     4    Time step:    26    Groundwater-Flow Eqn.
 Solving:  Stress period:     4    Time step:    27    Groundwater-Flow Eqn.
 Solving:  Stress period:     4    Time step:    28    Groundwater-Flow Eqn.
 Solving:  Stress period:     4    Time step:    29    Groundwater-Flow Eqn.
 Solving:  Stress period:     4    Time step:    30    Groundwater-Flow Eqn.
 Solving:  Stress period:     5    Time step:     1    Groundwater-Flow Eqn.
 Solving:  Stress period:     5    Time step:     2    Groundwater-Flow Eqn.
 Solving:  Stress period:     5    Time step:     3    Groundwater-Flow Eqn.
 Solving:  Stress period:     5    Time step:     4    Groundwater-Flow Eqn.
 Solving:  Stress period:     5    Time step:     5    Groundwater-Flow Eqn.
 Solving:  Stress period:     5    Time step:     6    Groundwater-Flow Eqn.
 Solving:  Stress period:     5    Time step:     7    Groundwater-Flow Eqn.
 Solving:  Stress period:     5    Time step:     8    Groundwater-Flow Eqn.
 Solving:  Stress period:     5    Time step:     9    Groundwater-Flow Eqn.
 Solving:  Stress period:     5    Time step:    10    Groundwater-Flow Eqn.
 Solving:  Stress period:     5    Time step:    11    Groundwater-Flow Eqn.
 Solving:  Stress period:     5    Time step:    12    Groundwater-Flow Eqn.
 Solving:  Stress period:     5    Time step:    13    Groundwater-Flow Eqn.
 Solving:  Stress period:     5    Time step:    14    Groundwater-Flow Eqn.
 Solving:  Stress period:     5    Time step:    15    Groundwater-Flow Eqn.
 Solving:  Stress period:     5    Time step:    16    Groundwater-Flow Eqn.
 Solving:  Stress period:     5    Time step:    17    Groundwater-Flow Eqn.
 Solving:  Stress period:     5    Time step:    18    Groundwater-Flow Eqn.
 Solving:  Stress period:     5    Time step:    19    Groundwater-Flow Eqn.
 Solving:  Stress period:     5    Time step:    20    Groundwater-Flow Eqn.
 Solving:  Stress period:     5    Time step:    21    Groundwater-Flow Eqn.
 Solving:  Stress period:     5    Time step:    22    Groundwater-Flow Eqn.
 Solving:  Stress period:     5    Time step:    23    Groundwater-Flow Eqn.
 Solving:  Stress period:     5    Time step:    24    Groundwater-Flow Eqn.
 Solving:  Stress period:     5    Time step:    25    Groundwater-Flow Eqn.
 Solving:  Stress period:     5    Time step:    26    Groundwater-Flow Eqn.
 Solving:  Stress period:     5    Time step:    27    Groundwater-Flow Eqn.
 Solving:  Stress period:     5    Time step:    28    Groundwater-Flow Eqn.
 Solving:  Stress period:     5    Time step:    29    Groundwater-Flow Eqn.
 Solving:  Stress period:     5    Time step:    30    Groundwater-Flow Eqn.
 Solving:  Stress period:     6    Time step:     1    Groundwater-Flow Eqn.
 Solving:  Stress period:     6    Time step:     2    Groundwater-Flow Eqn.
 Solving:  Stress period:     6    Time step:     3    Groundwater-Flow Eqn.
 Solving:  Stress period:     6    Time step:     4    Groundwater-Flow Eqn.
 Solving:  Stress period:     6    Time step:     5    Groundwater-Flow Eqn.
 Solving:  Stress period:     6    Time step:     6    Groundwater-Flow Eqn.
 Solving:  Stress period:     6    Time step:     7    Groundwater-Flow Eqn.
 Solving:  Stress period:     6    Time step:     8    Groundwater-Flow Eqn.
 Solving:  Stress period:     6    Time step:     9    Groundwater-Flow Eqn.
 Solving:  Stress period:     6    Time step:    10    Groundwater-Flow Eqn.
 Solving:  Stress period:     6    Time step:    11    Groundwater-Flow Eqn.
 Solving:  Stress period:     6    Time step:    12    Groundwater-Flow Eqn.
 Solving:  Stress period:     6    Time step:    13    Groundwater-Flow Eqn.
 Solving:  Stress period:     6    Time step:    14    Groundwater-Flow Eqn.
 Solving:  Stress period:     6    Time step:    15    Groundwater-Flow Eqn.
 Solving:  Stress period:     6    Time step:    16    Groundwater-Flow Eqn.
 Solving:  Stress period:     6    Time step:    17    Groundwater-Flow Eqn.
 Solving:  Stress period:     6    Time step:    18    Groundwater-Flow Eqn.
 Solving:  Stress period:     6    Time step:    19    Groundwater-Flow Eqn.
 Solving:  Stress period:     6    Time step:    20    Groundwater-Flow Eqn.
 Solving:  Stress period:     6    Time step:    21    Groundwater-Flow Eqn.
 Solving:  Stress period:     6    Time step:    22    Groundwater-Flow Eqn.
 Solving:  Stress period:     6    Time step:    23    Groundwater-Flow Eqn.
 Solving:  Stress period:     6    Time step:    24    Groundwater-Flow Eqn.
 Solving:  Stress period:     6    Time step:    25    Groundwater-Flow Eqn.
 Solving:  Stress period:     6    Time step:    26    Groundwater-Flow Eqn.
 Solving:  Stress period:     6    Time step:    27    Groundwater-Flow Eqn.
 Solving:  Stress period:     6    Time step:    28    Groundwater-Flow Eqn.
 Solving:  Stress period:     6    Time step:    29    Groundwater-Flow Eqn.
 Solving:  Stress period:     6    Time step:    30    Groundwater-Flow Eqn.
 Solving:  Stress period:     7    Time step:     1    Groundwater-Flow Eqn.
 Solving:  Stress period:     7    Time step:     2    Groundwater-Flow Eqn.
 Solving:  Stress period:     7    Time step:     3    Groundwater-Flow Eqn.
 Solving:  Stress period:     7    Time step:     4    Groundwater-Flow Eqn.
 Solving:  Stress period:     7    Time step:     5    Groundwater-Flow Eqn.
 Solving:  Stress period:     7    Time step:     6    Groundwater-Flow Eqn.
 Solving:  Stress period:     7    Time step:     7    Groundwater-Flow Eqn.
 Solving:  Stress period:     7    Time step:     8    Groundwater-Flow Eqn.
 Solving:  Stress period:     7    Time step:     9    Groundwater-Flow Eqn.
 Solving:  Stress period:     7    Time step:    10    Groundwater-Flow Eqn.
 Solving:  Stress period:     7    Time step:    11    Groundwater-Flow Eqn.
 Solving:  Stress period:     7    Time step:    12    Groundwater-Flow Eqn.
 Solving:  Stress period:     7    Time step:    13    Groundwater-Flow Eqn.
 Solving:  Stress period:     7    Time step:    14    Groundwater-Flow Eqn.
 Solving:  Stress period:     7    Time step:    15    Groundwater-Flow Eqn.
 Solving:  Stress period:     7    Time step:    16    Groundwater-Flow Eqn.
 Solving:  Stress period:     7    Time step:    17    Groundwater-Flow Eqn.
 Solving:  Stress period:     7    Time step:    18    Groundwater-Flow Eqn.
 Solving:  Stress period:     7    Time step:    19    Groundwater-Flow Eqn.
 Solving:  Stress period:     7    Time step:    20    Groundwater-Flow Eqn.
 Solving:  Stress period:     7    Time step:    21    Groundwater-Flow Eqn.
 Solving:  Stress period:     7    Time step:    22    Groundwater-Flow Eqn.
 Solving:  Stress period:     7    Time step:    23    Groundwater-Flow Eqn.
 Solving:  Stress period:     7    Time step:    24    Groundwater-Flow Eqn.
 Solving:  Stress period:     7    Time step:    25    Groundwater-Flow Eqn.
 Solving:  Stress period:     7    Time step:    26    Groundwater-Flow Eqn.
 Solving:  Stress period:     7    Time step:    27    Groundwater-Flow Eqn.
 Solving:  Stress period:     7    Time step:    28    Groundwater-Flow Eqn.
 Solving:  Stress period:     7    Time step:    29    Groundwater-Flow Eqn.
 Solving:  Stress period:     7    Time step:    30    Groundwater-Flow Eqn.
 Solving:  Stress period:     8    Time step:     1    Groundwater-Flow Eqn.
 Solving:  Stress period:     8    Time step:     2    Groundwater-Flow Eqn.
 Solving:  Stress period:     8    Time step:     3    Groundwater-Flow Eqn.
 Solving:  Stress period:     8    Time step:     4    Groundwater-Flow Eqn.
 Solving:  Stress period:     8    Time step:     5    Groundwater-Flow Eqn.
 Solving:  Stress period:     8    Time step:     6    Groundwater-Flow Eqn.
 Solving:  Stress period:     8    Time step:     7    Groundwater-Flow Eqn.
 Solving:  Stress period:     8    Time step:     8    Groundwater-Flow Eqn.
 Solving:  Stress period:     8    Time step:     9    Groundwater-Flow Eqn.
 Solving:  Stress period:     8    Time step:    10    Groundwater-Flow Eqn.
 Solving:  Stress period:     8    Time step:    11    Groundwater-Flow Eqn.
 Solving:  Stress period:     8    Time step:    12    Groundwater-Flow Eqn.
 Solving:  Stress period:     8    Time step:    13    Groundwater-Flow Eqn.
 Solving:  Stress period:     8    Time step:    14    Groundwater-Flow Eqn.
 Solving:  Stress period:     8    Time step:    15    Groundwater-Flow Eqn.
 Solving:  Stress period:     8    Time step:    16    Groundwater-Flow Eqn.
 Solving:  Stress period:     8    Time step:    17    Groundwater-Flow Eqn.
 Solving:  Stress period:     8    Time step:    18    Groundwater-Flow Eqn.
 Solving:  Stress period:     8    Time step:    19    Groundwater-Flow Eqn.
 Solving:  Stress period:     8    Time step:    20    Groundwater-Flow Eqn.
 Solving:  Stress period:     8    Time step:    21    Groundwater-Flow Eqn.
 Solving:  Stress period:     8    Time step:    22    Groundwater-Flow Eqn.
 Solving:  Stress period:     8    Time step:    23    Groundwater-Flow Eqn.
 Solving:  Stress period:     8    Time step:    24    Groundwater-Flow Eqn.
 Solving:  Stress period:     8    Time step:    25    Groundwater-Flow Eqn.
 Solving:  Stress period:     8    Time step:    26    Groundwater-Flow Eqn.
 Solving:  Stress period:     8    Time step:    27    Groundwater-Flow Eqn.
 Solving:  Stress period:     8    Time step:    28    Groundwater-Flow Eqn.
 Solving:  Stress period:     8    Time step:    29    Groundwater-Flow Eqn.
 Solving:  Stress period:     8    Time step:    30    Groundwater-Flow Eqn.
 Solving:  Stress period:     9    Time step:     1    Groundwater-Flow Eqn.
 Solving:  Stress period:     9    Time step:     2    Groundwater-Flow Eqn.
 Solving:  Stress period:     9    Time step:     3    Groundwater-Flow Eqn.
 Solving:  Stress period:     9    Time step:     4    Groundwater-Flow Eqn.
 Solving:  Stress period:     9    Time step:     5    Groundwater-Flow Eqn.
 Solving:  Stress period:     9    Time step:     6    Groundwater-Flow Eqn.
 Solving:  Stress period:     9    Time step:     7    Groundwater-Flow Eqn.
 Solving:  Stress period:     9    Time step:     8    Groundwater-Flow Eqn.
 Solving:  Stress period:     9    Time step:     9    Groundwater-Flow Eqn.
 Solving:  Stress period:     9    Time step:    10    Groundwater-Flow Eqn.
 Solving:  Stress period:     9    Time step:    11    Groundwater-Flow Eqn.
 Solving:  Stress period:     9    Time step:    12    Groundwater-Flow Eqn.
 Solving:  Stress period:     9    Time step:    13    Groundwater-Flow Eqn.
 Solving:  Stress period:     9    Time step:    14    Groundwater-Flow Eqn.
 Solving:  Stress period:     9    Time step:    15    Groundwater-Flow Eqn.
 Solving:  Stress period:     9    Time step:    16    Groundwater-Flow Eqn.
 Solving:  Stress period:     9    Time step:    17    Groundwater-Flow Eqn.
 Solving:  Stress period:     9    Time step:    18    Groundwater-Flow Eqn.
 Solving:  Stress period:     9    Time step:    19    Groundwater-Flow Eqn.
 Solving:  Stress period:     9    Time step:    20    Groundwater-Flow Eqn.
 Solving:  Stress period:     9    Time step:    21    Groundwater-Flow Eqn.
 Solving:  Stress period:     9    Time step:    22    Groundwater-Flow Eqn.
 Solving:  Stress period:     9    Time step:    23    Groundwater-Flow Eqn.
 Solving:  Stress period:     9    Time step:    24    Groundwater-Flow Eqn.
 Solving:  Stress period:     9    Time step:    25    Groundwater-Flow Eqn.
 Solving:  Stress period:     9    Time step:    26    Groundwater-Flow Eqn.
 Solving:  Stress period:     9    Time step:    27    Groundwater-Flow Eqn.
 Solving:  Stress period:     9    Time step:    28    Groundwater-Flow Eqn.
 Solving:  Stress period:     9    Time step:    29    Groundwater-Flow Eqn.
 Solving:  Stress period:     9    Time step:    30    Groundwater-Flow Eqn.
 Solving:  Stress period:    10    Time step:     1    Groundwater-Flow Eqn.
 Solving:  Stress period:    10    Time step:     2    Groundwater-Flow Eqn.
 Solving:  Stress period:    10    Time step:     3    Groundwater-Flow Eqn.
 Solving:  Stress period:    10    Time step:     4    Groundwater-Flow Eqn.
 Solving:  Stress period:    10    Time step:     5    Groundwater-Flow Eqn.
 Solving:  Stress period:    10    Time step:     6    Groundwater-Flow Eqn.
 Solving:  Stress period:    10    Time step:     7    Groundwater-Flow Eqn.
 Solving:  Stress period:    10    Time step:     8    Groundwater-Flow Eqn.
 Solving:  Stress period:    10    Time step:     9    Groundwater-Flow Eqn.
 Solving:  Stress period:    10    Time step:    10    Groundwater-Flow Eqn.
 Solving:  Stress period:    10    Time step:    11    Groundwater-Flow Eqn.
 Solving:  Stress period:    10    Time step:    12    Groundwater-Flow Eqn.
 Solving:  Stress period:    10    Time step:    13    Groundwater-Flow Eqn.
 Solving:  Stress period:    10    Time step:    14    Groundwater-Flow Eqn.
 Solving:  Stress period:    10    Time step:    15    Groundwater-Flow Eqn.
 Solving:  Stress period:    10    Time step:    16    Groundwater-Flow Eqn.
 Solving:  Stress period:    10    Time step:    17    Groundwater-Flow Eqn.
 Solving:  Stress period:    10    Time step:    18    Groundwater-Flow Eqn.
 Solving:  Stress period:    10    Time step:    19    Groundwater-Flow Eqn.
 Solving:  Stress period:    10    Time step:    20    Groundwater-Flow Eqn.
 Solving:  Stress period:    10    Time step:    21    Groundwater-Flow Eqn.
 Solving:  Stress period:    10    Time step:    22    Groundwater-Flow Eqn.
 Solving:  Stress period:    10    Time step:    23    Groundwater-Flow Eqn.
 Solving:  Stress period:    10    Time step:    24    Groundwater-Flow Eqn.
 Solving:  Stress period:    10    Time step:    25    Groundwater-Flow Eqn.
 Solving:  Stress period:    10    Time step:    26    Groundwater-Flow Eqn.
 Solving:  Stress period:    10    Time step:    27    Groundwater-Flow Eqn.
 Solving:  Stress period:    10    Time step:    28    Groundwater-Flow Eqn.
 Solving:  Stress period:    10    Time step:    29    Groundwater-Flow Eqn.
 Solving:  Stress period:    10    Time step:    30    Groundwater-Flow Eqn.
 Solving:  Stress period:    11    Time step:     1    Groundwater-Flow Eqn.
 Solving:  Stress period:    11    Time step:     2    Groundwater-Flow Eqn.
 Solving:  Stress period:    11    Time step:     3    Groundwater-Flow Eqn.
 Solving:  Stress period:    11    Time step:     4    Groundwater-Flow Eqn.
 Solving:  Stress period:    11    Time step:     5    Groundwater-Flow Eqn.
 Solving:  Stress period:    11    Time step:     6    Groundwater-Flow Eqn.
 Solving:  Stress period:    11    Time step:     7    Groundwater-Flow Eqn.
 Solving:  Stress period:    11    Time step:     8    Groundwater-Flow Eqn.
 Solving:  Stress period:    11    Time step:     9    Groundwater-Flow Eqn.
 Solving:  Stress period:    11    Time step:    10    Groundwater-Flow Eqn.
 Solving:  Stress period:    11    Time step:    11    Groundwater-Flow Eqn.
 Solving:  Stress period:    11    Time step:    12    Groundwater-Flow Eqn.
 Solving:  Stress period:    11    Time step:    13    Groundwater-Flow Eqn.
 Solving:  Stress period:    11    Time step:    14    Groundwater-Flow Eqn.
 Solving:  Stress period:    11    Time step:    15    Groundwater-Flow Eqn.
 Solving:  Stress period:    11    Time step:    16    Groundwater-Flow Eqn.
 Solving:  Stress period:    11    Time step:    17    Groundwater-Flow Eqn.
 Solving:  Stress period:    11    Time step:    18    Groundwater-Flow Eqn.
 Solving:  Stress period:    11    Time step:    19    Groundwater-Flow Eqn.
 Solving:  Stress period:    11    Time step:    20    Groundwater-Flow Eqn.
 Solving:  Stress period:    11    Time step:    21    Groundwater-Flow Eqn.
 Solving:  Stress period:    11    Time step:    22    Groundwater-Flow Eqn.
 Solving:  Stress period:    11    Time step:    23    Groundwater-Flow Eqn.
 Solving:  Stress period:    11    Time step:    24    Groundwater-Flow Eqn.
 Solving:  Stress period:    11    Time step:    25    Groundwater-Flow Eqn.
 Solving:  Stress period:    11    Time step:    26    Groundwater-Flow Eqn.
 Solving:  Stress period:    11    Time step:    27    Groundwater-Flow Eqn.
 Solving:  Stress period:    11    Time step:    28    Groundwater-Flow Eqn.
 Solving:  Stress period:    11    Time step:    29    Groundwater-Flow Eqn.
 Solving:  Stress period:    11    Time step:    30    Groundwater-Flow Eqn.
 Solving:  Stress period:    12    Time step:     1    Groundwater-Flow Eqn.
 Solving:  Stress period:    12    Time step:     2    Groundwater-Flow Eqn.
 Solving:  Stress period:    12    Time step:     3    Groundwater-Flow Eqn.
 Solving:  Stress period:    12    Time step:     4    Groundwater-Flow Eqn.
 Solving:  Stress period:    12    Time step:     5    Groundwater-Flow Eqn.
 Solving:  Stress period:    12    Time step:     6    Groundwater-Flow Eqn.
 Solving:  Stress period:    12    Time step:     7    Groundwater-Flow Eqn.
 Solving:  Stress period:    12    Time step:     8    Groundwater-Flow Eqn.
 Solving:  Stress period:    12    Time step:     9    Groundwater-Flow Eqn.
 Solving:  Stress period:    12    Time step:    10    Groundwater-Flow Eqn.
 Solving:  Stress period:    12    Time step:    11    Groundwater-Flow Eqn.
 Solving:  Stress period:    12    Time step:    12    Groundwater-Flow Eqn.
 Solving:  Stress period:    12    Time step:    13    Groundwater-Flow Eqn.
 Solving:  Stress period:    12    Time step:    14    Groundwater-Flow Eqn.
 Solving:  Stress period:    12    Time step:    15    Groundwater-Flow Eqn.
 Solving:  Stress period:    12    Time step:    16    Groundwater-Flow Eqn.
 Solving:  Stress period:    12    Time step:    17    Groundwater-Flow Eqn.
 Solving:  Stress period:    12    Time step:    18    Groundwater-Flow Eqn.
 Solving:  Stress period:    12    Time step:    19    Groundwater-Flow Eqn.
 Solving:  Stress period:    12    Time step:    20    Groundwater-Flow Eqn.
 Solving:  Stress period:    12    Time step:    21    Groundwater-Flow Eqn.
 Solving:  Stress period:    12    Time step:    22    Groundwater-Flow Eqn.
 Solving:  Stress period:    12    Time step:    23    Groundwater-Flow Eqn.
 Solving:  Stress period:    12    Time step:    24    Groundwater-Flow Eqn.
 Solving:  Stress period:    12    Time step:    25    Groundwater-Flow Eqn.
 Solving:  Stress period:    12    Time step:    26    Groundwater-Flow Eqn.
 Solving:  Stress period:    12    Time step:    27    Groundwater-Flow Eqn.
 Solving:  Stress period:    12    Time step:    28    Groundwater-Flow Eqn.
 Solving:  Stress period:    12    Time step:    29    Groundwater-Flow Eqn.
 Solving:  Stress period:    12    Time step:    30    Groundwater-Flow Eqn.
 Solving:  Stress period:    13    Time step:     1    Groundwater-Flow Eqn.
 Solving:  Stress period:    13    Time step:     2    Groundwater-Flow Eqn.
 Solving:  Stress period:    13    Time step:     3    Groundwater-Flow Eqn.
 Solving:  Stress period:    13    Time step:     4    Groundwater-Flow Eqn.
 Solving:  Stress period:    13    Time step:     5    Groundwater-Flow Eqn.
 Solving:  Stress period:    13    Time step:     6    Groundwater-Flow Eqn.
 Solving:  Stress period:    13    Time step:     7    Groundwater-Flow Eqn.
 Solving:  Stress period:    13    Time step:     8    Groundwater-Flow Eqn.
 Solving:  Stress period:    13    Time step:     9    Groundwater-Flow Eqn.
 Solving:  Stress period:    13    Time step:    10    Groundwater-Flow Eqn.
 Solving:  Stress period:    13    Time step:    11    Groundwater-Flow Eqn.
 Solving:  Stress period:    13    Time step:    12    Groundwater-Flow Eqn.
 Solving:  Stress period:    13    Time step:    13    Groundwater-Flow Eqn.
 Solving:  Stress period:    13    Time step:    14    Groundwater-Flow Eqn.
 Solving:  Stress period:    13    Time step:    15    Groundwater-Flow Eqn.
 Solving:  Stress period:    13    Time step:    16    Groundwater-Flow Eqn.
 Solving:  Stress period:    13    Time step:    17    Groundwater-Flow Eqn.
 Solving:  Stress period:    13    Time step:    18    Groundwater-Flow Eqn.
 Solving:  Stress period:    13    Time step:    19    Groundwater-Flow Eqn.
 Solving:  Stress period:    13    Time step:    20    Groundwater-Flow Eqn.
 Solving:  Stress period:    13    Time step:    21    Groundwater-Flow Eqn.
 Solving:  Stress period:    13    Time step:    22    Groundwater-Flow Eqn.
 Solving:  Stress period:    13    Time step:    23    Groundwater-Flow Eqn.
 Solving:  Stress period:    13    Time step:    24    Groundwater-Flow Eqn.
 Solving:  Stress period:    13    Time step:    25    Groundwater-Flow Eqn.
 Solving:  Stress period:    13    Time step:    26    Groundwater-Flow Eqn.
 Solving:  Stress period:    13    Time step:    27    Groundwater-Flow Eqn.
 Solving:  Stress period:    13    Time step:    28    Groundwater-Flow Eqn.
 Solving:  Stress period:    13    Time step:    29    Groundwater-Flow Eqn.
 Solving:  Stress period:    13    Time step:    30    Groundwater-Flow Eqn.
 Solving:  Stress period:    14    Time step:     1    Groundwater-Flow Eqn.
 Solving:  Stress period:    14    Time step:     2    Groundwater-Flow Eqn.
 Solving:  Stress period:    14    Time step:     3    Groundwater-Flow Eqn.
 Solving:  Stress period:    14    Time step:     4    Groundwater-Flow Eqn.
 Solving:  Stress period:    14    Time step:     5    Groundwater-Flow Eqn.
 Solving:  Stress period:    14    Time step:     6    Groundwater-Flow Eqn.
 Solving:  Stress period:    14    Time step:     7    Groundwater-Flow Eqn.
 Solving:  Stress period:    14    Time step:     8    Groundwater-Flow Eqn.
 Solving:  Stress period:    14    Time step:     9    Groundwater-Flow Eqn.
 Solving:  Stress period:    14    Time step:    10    Groundwater-Flow Eqn.
 Solving:  Stress period:    14    Time step:    11    Groundwater-Flow Eqn.
 Solving:  Stress period:    14    Time step:    12    Groundwater-Flow Eqn.
 Solving:  Stress period:    14    Time step:    13    Groundwater-Flow Eqn.
 Solving:  Stress period:    14    Time step:    14    Groundwater-Flow Eqn.
 Solving:  Stress period:    14    Time step:    15    Groundwater-Flow Eqn.
 Solving:  Stress period:    14    Time step:    16    Groundwater-Flow Eqn.
 Solving:  Stress period:    14    Time step:    17    Groundwater-Flow Eqn.
 Solving:  Stress period:    14    Time step:    18    Groundwater-Flow Eqn.
 Solving:  Stress period:    14    Time step:    19    Groundwater-Flow Eqn.
 Solving:  Stress period:    14    Time step:    20    Groundwater-Flow Eqn.
 Solving:  Stress period:    14    Time step:    21    Groundwater-Flow Eqn.
 Solving:  Stress period:    14    Time step:    22    Groundwater-Flow Eqn.
 Solving:  Stress period:    14    Time step:    23    Groundwater-Flow Eqn.
 Solving:  Stress period:    14    Time step:    24    Groundwater-Flow Eqn.
 Solving:  Stress period:    14    Time step:    25    Groundwater-Flow Eqn.
 Solving:  Stress period:    14    Time step:    26    Groundwater-Flow Eqn.
 Solving:  Stress period:    14    Time step:    27    Groundwater-Flow Eqn.
 Solving:  Stress period:    14    Time step:    28    Groundwater-Flow Eqn.
 Solving:  Stress period:    14    Time step:    29    Groundwater-Flow Eqn.
 Solving:  Stress period:    14    Time step:    30    Groundwater-Flow Eqn.
 Solving:  Stress period:    15    Time step:     1    Groundwater-Flow Eqn.
 Solving:  Stress period:    15    Time step:     2    Groundwater-Flow Eqn.
 Solving:  Stress period:    15    Time step:     3    Groundwater-Flow Eqn.
 Solving:  Stress period:    15    Time step:     4    Groundwater-Flow Eqn.
 Solving:  Stress period:    15    Time step:     5    Groundwater-Flow Eqn.
 Solving:  Stress period:    15    Time step:     6    Groundwater-Flow Eqn.
 Solving:  Stress period:    15    Time step:     7    Groundwater-Flow Eqn.
 Solving:  Stress period:    15    Time step:     8    Groundwater-Flow Eqn.
 Solving:  Stress period:    15    Time step:     9    Groundwater-Flow Eqn.
 Solving:  Stress period:    15    Time step:    10    Groundwater-Flow Eqn.
 Solving:  Stress period:    15    Time step:    11    Groundwater-Flow Eqn.
 Solving:  Stress period:    15    Time step:    12    Groundwater-Flow Eqn.
 Solving:  Stress period:    15    Time step:    13    Groundwater-Flow Eqn.
 Solving:  Stress period:    15    Time step:    14    Groundwater-Flow Eqn.
 Solving:  Stress period:    15    Time step:    15    Groundwater-Flow Eqn.
 Solving:  Stress period:    15    Time step:    16    Groundwater-Flow Eqn.
 Solving:  Stress period:    15    Time step:    17    Groundwater-Flow Eqn.
 Solving:  Stress period:    15    Time step:    18    Groundwater-Flow Eqn.
 Solving:  Stress period:    15    Time step:    19    Groundwater-Flow Eqn.
 Solving:  Stress period:    15    Time step:    20    Groundwater-Flow Eqn.
 Solving:  Stress period:    15    Time step:    21    Groundwater-Flow Eqn.
 Solving:  Stress period:    15    Time step:    22    Groundwater-Flow Eqn.
 Solving:  Stress period:    15    Time step:    23    Groundwater-Flow Eqn.
 Solving:  Stress period:    15    Time step:    24    Groundwater-Flow Eqn.
 Solving:  Stress period:    15    Time step:    25    Groundwater-Flow Eqn.
 Solving:  Stress period:    15    Time step:    26    Groundwater-Flow Eqn.
 Solving:  Stress period:    15    Time step:    27    Groundwater-Flow Eqn.
 Solving:  Stress period:    15    Time step:    28    Groundwater-Flow Eqn.
 Solving:  Stress period:    15    Time step:    29    Groundwater-Flow Eqn.
 Solving:  Stress period:    15    Time step:    30    Groundwater-Flow Eqn.
 Solving:  Stress period:    16    Time step:     1    Groundwater-Flow Eqn.
 Solving:  Stress period:    16    Time step:     2    Groundwater-Flow Eqn.
 Solving:  Stress period:    16    Time step:     3    Groundwater-Flow Eqn.
 Solving:  Stress period:    16    Time step:     4    Groundwater-Flow Eqn.
 Solving:  Stress period:    16    Time step:     5    Groundwater-Flow Eqn.
 Solving:  Stress period:    16    Time step:     6    Groundwater-Flow Eqn.
 Solving:  Stress period:    16    Time step:     7    Groundwater-Flow Eqn.
 Solving:  Stress period:    16    Time step:     8    Groundwater-Flow Eqn.
 Solving:  Stress period:    16    Time step:     9    Groundwater-Flow Eqn.
 Solving:  Stress period:    16    Time step:    10    Groundwater-Flow Eqn.
 Solving:  Stress period:    16    Time step:    11    Groundwater-Flow Eqn.
 Solving:  Stress period:    16    Time step:    12    Groundwater-Flow Eqn.
 Solving:  Stress period:    16    Time step:    13    Groundwater-Flow Eqn.
 Solving:  Stress period:    16    Time step:    14    Groundwater-Flow Eqn.
 Solving:  Stress period:    16    Time step:    15    Groundwater-Flow Eqn.
 Solving:  Stress period:    16    Time step:    16    Groundwater-Flow Eqn.
 Solving:  Stress period:    16    Time step:    17    Groundwater-Flow Eqn.
 Solving:  Stress period:    16    Time step:    18    Groundwater-Flow Eqn.
 Solving:  Stress period:    16    Time step:    19    Groundwater-Flow Eqn.
 Solving:  Stress period:    16    Time step:    20    Groundwater-Flow Eqn.
 Solving:  Stress period:    16    Time step:    21    Groundwater-Flow Eqn.
 Solving:  Stress period:    16    Time step:    22    Groundwater-Flow Eqn.
 Solving:  Stress period:    16    Time step:    23    Groundwater-Flow Eqn.
 Solving:  Stress period:    16    Time step:    24    Groundwater-Flow Eqn.
 Solving:  Stress period:    16    Time step:    25    Groundwater-Flow Eqn.
 Solving:  Stress period:    16    Time step:    26    Groundwater-Flow Eqn.
 Solving:  Stress period:    16    Time step:    27    Groundwater-Flow Eqn.
 Solving:  Stress period:    16    Time step:    28    Groundwater-Flow Eqn.
 Solving:  Stress period:    16    Time step:    29    Groundwater-Flow Eqn.
 Solving:  Stress period:    16    Time step:    30    Groundwater-Flow Eqn.
 Solving:  Stress period:    17    Time step:     1    Groundwater-Flow Eqn.
 Solving:  Stress period:    17    Time step:     2    Groundwater-Flow Eqn.
 Solving:  Stress period:    17    Time step:     3    Groundwater-Flow Eqn.
 Solving:  Stress period:    17    Time step:     4    Groundwater-Flow Eqn.
 Solving:  Stress period:    17    Time step:     5    Groundwater-Flow Eqn.
 Solving:  Stress period:    17    Time step:     6    Groundwater-Flow Eqn.
 Solving:  Stress period:    17    Time step:     7    Groundwater-Flow Eqn.
 Solving:  Stress period:    17    Time step:     8    Groundwater-Flow Eqn.
 Solving:  Stress period:    17    Time step:     9    Groundwater-Flow Eqn.
 Solving:  Stress period:    17    Time step:    10    Groundwater-Flow Eqn.
 Solving:  Stress period:    17    Time step:    11    Groundwater-Flow Eqn.
 Solving:  Stress period:    17    Time step:    12    Groundwater-Flow Eqn.
 Solving:  Stress period:    17    Time step:    13    Groundwater-Flow Eqn.
 Solving:  Stress period:    17    Time step:    14    Groundwater-Flow Eqn.
 Solving:  Stress period:    17    Time step:    15    Groundwater-Flow Eqn.
 Solving:  Stress period:    17    Time step:    16    Groundwater-Flow Eqn.
 Solving:  Stress period:    17    Time step:    17    Groundwater-Flow Eqn.
 Solving:  Stress period:    17    Time step:    18    Groundwater-Flow Eqn.
 Solving:  Stress period:    17    Time step:    19    Groundwater-Flow Eqn.
 Solving:  Stress period:    17    Time step:    20    Groundwater-Flow Eqn.
 Solving:  Stress period:    17    Time step:    21    Groundwater-Flow Eqn.
 Solving:  Stress period:    17    Time step:    22    Groundwater-Flow Eqn.
 Solving:  Stress period:    17    Time step:    23    Groundwater-Flow Eqn.
 Solving:  Stress period:    17    Time step:    24    Groundwater-Flow Eqn.
 Solving:  Stress period:    17    Time step:    25    Groundwater-Flow Eqn.
 Solving:  Stress period:    17    Time step:    26    Groundwater-Flow Eqn.
 Solving:  Stress period:    17    Time step:    27    Groundwater-Flow Eqn.
 Solving:  Stress period:    17    Time step:    28    Groundwater-Flow Eqn.
 Solving:  Stress period:    17    Time step:    29    Groundwater-Flow Eqn.
 Solving:  Stress period:    17    Time step:    30    Groundwater-Flow Eqn.
 Solving:  Stress period:    18    Time step:     1    Groundwater-Flow Eqn.
 Solving:  Stress period:    18    Time step:     2    Groundwater-Flow Eqn.
 Solving:  Stress period:    18    Time step:     3    Groundwater-Flow Eqn.
 Solving:  Stress period:    18    Time step:     4    Groundwater-Flow Eqn.
 Solving:  Stress period:    18    Time step:     5    Groundwater-Flow Eqn.
 Solving:  Stress period:    18    Time step:     6    Groundwater-Flow Eqn.
 Solving:  Stress period:    18    Time step:     7    Groundwater-Flow Eqn.
 Solving:  Stress period:    18    Time step:     8    Groundwater-Flow Eqn.
 Solving:  Stress period:    18    Time step:     9    Groundwater-Flow Eqn.
 Solving:  Stress period:    18    Time step:    10    Groundwater-Flow Eqn.
 Solving:  Stress period:    18    Time step:    11    Groundwater-Flow Eqn.
 Solving:  Stress period:    18    Time step:    12    Groundwater-Flow Eqn.
 Solving:  Stress period:    18    Time step:    13    Groundwater-Flow Eqn.
 Solving:  Stress period:    18    Time step:    14    Groundwater-Flow Eqn.
 Solving:  Stress period:    18    Time step:    15    Groundwater-Flow Eqn.
 Solving:  Stress period:    18    Time step:    16    Groundwater-Flow Eqn.
 Solving:  Stress period:    18    Time step:    17    Groundwater-Flow Eqn.
 Solving:  Stress period:    18    Time step:    18    Groundwater-Flow Eqn.
 Solving:  Stress period:    18    Time step:    19    Groundwater-Flow Eqn.
 Solving:  Stress period:    18    Time step:    20    Groundwater-Flow Eqn.
 Solving:  Stress period:    18    Time step:    21    Groundwater-Flow Eqn.
 Solving:  Stress period:    18    Time step:    22    Groundwater-Flow Eqn.
 Solving:  Stress period:    18    Time step:    23    Groundwater-Flow Eqn.
 Solving:  Stress period:    18    Time step:    24    Groundwater-Flow Eqn.
 Solving:  Stress period:    18    Time step:    25    Groundwater-Flow Eqn.
 Solving:  Stress period:    18    Time step:    26    Groundwater-Flow Eqn.
 Solving:  Stress period:    18    Time step:    27    Groundwater-Flow Eqn.
 Solving:  Stress period:    18    Time step:    28    Groundwater-Flow Eqn.
 Solving:  Stress period:    18    Time step:    29    Groundwater-Flow Eqn.
 Solving:  Stress period:    18    Time step:    30    Groundwater-Flow Eqn.
 Solving:  Stress period:    19    Time step:     1    Groundwater-Flow Eqn.
 Solving:  Stress period:    19    Time step:     2    Groundwater-Flow Eqn.
 Solving:  Stress period:    19    Time step:     3    Groundwater-Flow Eqn.
 Solving:  Stress period:    19    Time step:     4    Groundwater-Flow Eqn.
 Solving:  Stress period:    19    Time step:     5    Groundwater-Flow Eqn.
 Solving:  Stress period:    19    Time step:     6    Groundwater-Flow Eqn.
 Solving:  Stress period:    19    Time step:     7    Groundwater-Flow Eqn.
 Solving:  Stress period:    19    Time step:     8    Groundwater-Flow Eqn.
 Solving:  Stress period:    19    Time step:     9    Groundwater-Flow Eqn.
 Solving:  Stress period:    19    Time step:    10    Groundwater-Flow Eqn.
 Solving:  Stress period:    19    Time step:    11    Groundwater-Flow Eqn.
 Solving:  Stress period:    19    Time step:    12    Groundwater-Flow Eqn.
 Solving:  Stress period:    19    Time step:    13    Groundwater-Flow Eqn.
 Solving:  Stress period:    19    Time step:    14    Groundwater-Flow Eqn.
 Solving:  Stress period:    19    Time step:    15    Groundwater-Flow Eqn.
 Solving:  Stress period:    19    Time step:    16    Groundwater-Flow Eqn.
 Solving:  Stress period:    19    Time step:    17    Groundwater-Flow Eqn.
 Solving:  Stress period:    19    Time step:    18    Groundwater-Flow Eqn.
 Solving:  Stress period:    19    Time step:    19    Groundwater-Flow Eqn.
 Solving:  Stress period:    19    Time step:    20    Groundwater-Flow Eqn.
 Solving:  Stress period:    19    Time step:    21    Groundwater-Flow Eqn.
 Solving:  Stress period:    19    Time step:    22    Groundwater-Flow Eqn.
 Solving:  Stress period:    19    Time step:    23    Groundwater-Flow Eqn.
 Solving:  Stress period:    19    Time step:    24    Groundwater-Flow Eqn.
 Solving:  Stress period:    19    Time step:    25    Groundwater-Flow Eqn.
 Solving:  Stress period:    19    Time step:    26    Groundwater-Flow Eqn.
 Solving:  Stress period:    19    Time step:    27    Groundwater-Flow Eqn.
 Solving:  Stress period:    19    Time step:    28    Groundwater-Flow Eqn.
 Solving:  Stress period:    19    Time step:    29    Groundwater-Flow Eqn.
 Solving:  Stress period:    19    Time step:    30    Groundwater-Flow Eqn.
 Solving:  Stress period:    20    Time step:     1    Groundwater-Flow Eqn.
 Solving:  Stress period:    20    Time step:     2    Groundwater-Flow Eqn.
 Solving:  Stress period:    20    Time step:     3    Groundwater-Flow Eqn.
 Solving:  Stress period:    20    Time step:     4    Groundwater-Flow Eqn.
 Solving:  Stress period:    20    Time step:     5    Groundwater-Flow Eqn.
 Solving:  Stress period:    20    Time step:     6    Groundwater-Flow Eqn.
 Solving:  Stress period:    20    Time step:     7    Groundwater-Flow Eqn.
 Solving:  Stress period:    20    Time step:     8    Groundwater-Flow Eqn.
 Solving:  Stress period:    20    Time step:     9    Groundwater-Flow Eqn.
 Solving:  Stress period:    20    Time step:    10    Groundwater-Flow Eqn.
 Solving:  Stress period:    20    Time step:    11    Groundwater-Flow Eqn.
 Solving:  Stress period:    20    Time step:    12    Groundwater-Flow Eqn.
 Solving:  Stress period:    20    Time step:    13    Groundwater-Flow Eqn.
 Solving:  Stress period:    20    Time step:    14    Groundwater-Flow Eqn.
 Solving:  Stress period:    20    Time step:    15    Groundwater-Flow Eqn.
 Solving:  Stress period:    20    Time step:    16    Groundwater-Flow Eqn.
 Solving:  Stress period:    20    Time step:    17    Groundwater-Flow Eqn.
 Solving:  Stress period:    20    Time step:    18    Groundwater-Flow Eqn.
 Solving:  Stress period:    20    Time step:    19    Groundwater-Flow Eqn.
 Solving:  Stress period:    20    Time step:    20    Groundwater-Flow Eqn.
 Solving:  Stress period:    20    Time step:    21    Groundwater-Flow Eqn.
 Solving:  Stress period:    20    Time step:    22    Groundwater-Flow Eqn.
 Solving:  Stress period:    20    Time step:    23    Groundwater-Flow Eqn.
 Solving:  Stress period:    20    Time step:    24    Groundwater-Flow Eqn.
 Solving:  Stress period:    20    Time step:    25    Groundwater-Flow Eqn.
 Solving:  Stress period:    20    Time step:    26    Groundwater-Flow Eqn.
 Solving:  Stress period:    20    Time step:    27    Groundwater-Flow Eqn.
 Solving:  Stress period:    20    Time step:    28    Groundwater-Flow Eqn.
 Solving:  Stress period:    20    Time step:    29    Groundwater-Flow Eqn.
 Solving:  Stress period:    20    Time step:    30    Groundwater-Flow Eqn.
 Solving:  Stress period:    21    Time step:     1    Groundwater-Flow Eqn.
 Solving:  Stress period:    21    Time step:     2    Groundwater-Flow Eqn.
 Solving:  Stress period:    21    Time step:     3    Groundwater-Flow Eqn.
 Solving:  Stress period:    21    Time step:     4    Groundwater-Flow Eqn.
 Solving:  Stress period:    21    Time step:     5    Groundwater-Flow Eqn.
 Solving:  Stress period:    21    Time step:     6    Groundwater-Flow Eqn.
 Solving:  Stress period:    21    Time step:     7    Groundwater-Flow Eqn.
 Solving:  Stress period:    21    Time step:     8    Groundwater-Flow Eqn.
 Solving:  Stress period:    21    Time step:     9    Groundwater-Flow Eqn.
 Solving:  Stress period:    21    Time step:    10    Groundwater-Flow Eqn.
 Solving:  Stress period:    21    Time step:    11    Groundwater-Flow Eqn.
 Solving:  Stress period:    21    Time step:    12    Groundwater-Flow Eqn.
 Solving:  Stress period:    21    Time step:    13    Groundwater-Flow Eqn.
 Solving:  Stress period:    21    Time step:    14    Groundwater-Flow Eqn.
 Solving:  Stress period:    21    Time step:    15    Groundwater-Flow Eqn.
 Solving:  Stress period:    21    Time step:    16    Groundwater-Flow Eqn.
 Solving:  Stress period:    21    Time step:    17    Groundwater-Flow Eqn.
 Solving:  Stress period:    21    Time step:    18    Groundwater-Flow Eqn.
 Solving:  Stress period:    21    Time step:    19    Groundwater-Flow Eqn.
 Solving:  Stress period:    21    Time step:    20    Groundwater-Flow Eqn.
 Solving:  Stress period:    21    Time step:    21    Groundwater-Flow Eqn.
 Solving:  Stress period:    21    Time step:    22    Groundwater-Flow Eqn.
 Solving:  Stress period:    21    Time step:    23    Groundwater-Flow Eqn.
 Solving:  Stress period:    21    Time step:    24    Groundwater-Flow Eqn.
 Solving:  Stress period:    21    Time step:    25    Groundwater-Flow Eqn.
 Solving:  Stress period:    21    Time step:    26    Groundwater-Flow Eqn.
 Solving:  Stress period:    21    Time step:    27    Groundwater-Flow Eqn.
 Solving:  Stress period:    21    Time step:    28    Groundwater-Flow Eqn.
 Solving:  Stress period:    21    Time step:    29    Groundwater-Flow Eqn.
 Solving:  Stress period:    21    Time step:    30    Groundwater-Flow Eqn.
 Solving:  Stress period:    22    Time step:     1    Groundwater-Flow Eqn.
 Solving:  Stress period:    22    Time step:     2    Groundwater-Flow Eqn.
 Solving:  Stress period:    22    Time step:     3    Groundwater-Flow Eqn.
 Solving:  Stress period:    22    Time step:     4    Groundwater-Flow Eqn.
 Solving:  Stress period:    22    Time step:     5    Groundwater-Flow Eqn.
 Solving:  Stress period:    22    Time step:     6    Groundwater-Flow Eqn.
 Solving:  Stress period:    22    Time step:     7    Groundwater-Flow Eqn.
 Solving:  Stress period:    22    Time step:     8    Groundwater-Flow Eqn.
 Solving:  Stress period:    22    Time step:     9    Groundwater-Flow Eqn.
 Solving:  Stress period:    22    Time step:    10    Groundwater-Flow Eqn.
 Solving:  Stress period:    22    Time step:    11    Groundwater-Flow Eqn.
 Solving:  Stress period:    22    Time step:    12    Groundwater-Flow Eqn.
 Solving:  Stress period:    22    Time step:    13    Groundwater-Flow Eqn.
 Solving:  Stress period:    22    Time step:    14    Groundwater-Flow Eqn.
 Solving:  Stress period:    22    Time step:    15    Groundwater-Flow Eqn.
 Solving:  Stress period:    22    Time step:    16    Groundwater-Flow Eqn.
 Solving:  Stress period:    22    Time step:    17    Groundwater-Flow Eqn.
 Solving:  Stress period:    22    Time step:    18    Groundwater-Flow Eqn.
 Solving:  Stress period:    22    Time step:    19    Groundwater-Flow Eqn.
 Solving:  Stress period:    22    Time step:    20    Groundwater-Flow Eqn.
 Solving:  Stress period:    22    Time step:    21    Groundwater-Flow Eqn.
 Solving:  Stress period:    22    Time step:    22    Groundwater-Flow Eqn.
 Solving:  Stress period:    22    Time step:    23    Groundwater-Flow Eqn.
 Solving:  Stress period:    22    Time step:    24    Groundwater-Flow Eqn.
 Solving:  Stress period:    22    Time step:    25    Groundwater-Flow Eqn.
 Solving:  Stress period:    22    Time step:    26    Groundwater-Flow Eqn.
 Solving:  Stress period:    22    Time step:    27    Groundwater-Flow Eqn.
 Solving:  Stress period:    22    Time step:    28    Groundwater-Flow Eqn.
 Solving:  Stress period:    22    Time step:    29    Groundwater-Flow Eqn.
 Solving:  Stress period:    22    Time step:    30    Groundwater-Flow Eqn.
 Solving:  Stress period:    23    Time step:     1    Groundwater-Flow Eqn.
 Solving:  Stress period:    23    Time step:     2    Groundwater-Flow Eqn.
 Solving:  Stress period:    23    Time step:     3    Groundwater-Flow Eqn.
 Solving:  Stress period:    23    Time step:     4    Groundwater-Flow Eqn.
 Solving:  Stress period:    23    Time step:     5    Groundwater-Flow Eqn.
 Solving:  Stress period:    23    Time step:     6    Groundwater-Flow Eqn.
 Solving:  Stress period:    23    Time step:     7    Groundwater-Flow Eqn.
 Solving:  Stress period:    23    Time step:     8    Groundwater-Flow Eqn.
 Solving:  Stress period:    23    Time step:     9    Groundwater-Flow Eqn.
 Solving:  Stress period:    23    Time step:    10    Groundwater-Flow Eqn.
 Solving:  Stress period:    23    Time step:    11    Groundwater-Flow Eqn.
 Solving:  Stress period:    23    Time step:    12    Groundwater-Flow Eqn.
 Solving:  Stress period:    23    Time step:    13    Groundwater-Flow Eqn.
 Solving:  Stress period:    23    Time step:    14    Groundwater-Flow Eqn.
 Solving:  Stress period:    23    Time step:    15    Groundwater-Flow Eqn.
 Solving:  Stress period:    23    Time step:    16    Groundwater-Flow Eqn.
 Solving:  Stress period:    23    Time step:    17    Groundwater-Flow Eqn.
 Solving:  Stress period:    23    Time step:    18    Groundwater-Flow Eqn.
 Solving:  Stress period:    23    Time step:    19    Groundwater-Flow Eqn.
 Solving:  Stress period:    23    Time step:    20    Groundwater-Flow Eqn.
 Solving:  Stress period:    23    Time step:    21    Groundwater-Flow Eqn.
 Solving:  Stress period:    23    Time step:    22    Groundwater-Flow Eqn.
 Solving:  Stress period:    23    Time step:    23    Groundwater-Flow Eqn.
 Solving:  Stress period:    23    Time step:    24    Groundwater-Flow Eqn.
 Solving:  Stress period:    23    Time step:    25    Groundwater-Flow Eqn.
 Solving:  Stress period:    23    Time step:    26    Groundwater-Flow Eqn.
 Solving:  Stress period:    23    Time step:    27    Groundwater-Flow Eqn.
 Solving:  Stress period:    23    Time step:    28    Groundwater-Flow Eqn.
 Solving:  Stress period:    23    Time step:    29    Groundwater-Flow Eqn.
 Solving:  Stress period:    23    Time step:    30    Groundwater-Flow Eqn.
 Solving:  Stress period:    24    Time step:     1    Groundwater-Flow Eqn.
 Solving:  Stress period:    24    Time step:     2    Groundwater-Flow Eqn.
 Solving:  Stress period:    24    Time step:     3    Groundwater-Flow Eqn.
 Solving:  Stress period:    24    Time step:     4    Groundwater-Flow Eqn.
 Solving:  Stress period:    24    Time step:     5    Groundwater-Flow Eqn.
 Solving:  Stress period:    24    Time step:     6    Groundwater-Flow Eqn.
 Solving:  Stress period:    24    Time step:     7    Groundwater-Flow Eqn.
 Solving:  Stress period:    24    Time step:     8    Groundwater-Flow Eqn.
 Solving:  Stress period:    24    Time step:     9    Groundwater-Flow Eqn.
 Solving:  Stress period:    24    Time step:    10    Groundwater-Flow Eqn.
 Solving:  Stress period:    24    Time step:    11    Groundwater-Flow Eqn.
 Solving:  Stress period:    24    Time step:    12    Groundwater-Flow Eqn.
 Solving:  Stress period:    24    Time step:    13    Groundwater-Flow Eqn.
 Solving:  Stress period:    24    Time step:    14    Groundwater-Flow Eqn.
 Solving:  Stress period:    24    Time step:    15    Groundwater-Flow Eqn.
 Solving:  Stress period:    24    Time step:    16    Groundwater-Flow Eqn.
 Solving:  Stress period:    24    Time step:    17    Groundwater-Flow Eqn.
 Solving:  Stress period:    24    Time step:    18    Groundwater-Flow Eqn.
 Solving:  Stress period:    24    Time step:    19    Groundwater-Flow Eqn.
 Solving:  Stress period:    24    Time step:    20    Groundwater-Flow Eqn.
 Solving:  Stress period:    24    Time step:    21    Groundwater-Flow Eqn.
 Solving:  Stress period:    24    Time step:    22    Groundwater-Flow Eqn.
 Solving:  Stress period:    24    Time step:    23    Groundwater-Flow Eqn.
 Solving:  Stress period:    24    Time step:    24    Groundwater-Flow Eqn.
 Solving:  Stress period:    24    Time step:    25    Groundwater-Flow Eqn.
 Solving:  Stress period:    24    Time step:    26    Groundwater-Flow Eqn.
 Solving:  Stress period:    24    Time step:    27    Groundwater-Flow Eqn.
 Solving:  Stress period:    24    Time step:    28    Groundwater-Flow Eqn.
 Solving:  Stress period:    24    Time step:    29    Groundwater-Flow Eqn.
 Solving:  Stress period:    24    Time step:    30    Groundwater-Flow Eqn.
 Solving:  Stress period:    25    Time step:     1    Groundwater-Flow Eqn.
 Solving:  Stress period:    25    Time step:     2    Groundwater-Flow Eqn.
 Solving:  Stress period:    25    Time step:     3    Groundwater-Flow Eqn.
 Solving:  Stress period:    25    Time step:     4    Groundwater-Flow Eqn.
 Solving:  Stress period:    25    Time step:     5    Groundwater-Flow Eqn.
 Solving:  Stress period:    25    Time step:     6    Groundwater-Flow Eqn.
 Solving:  Stress period:    25    Time step:     7    Groundwater-Flow Eqn.
 Solving:  Stress period:    25    Time step:     8    Groundwater-Flow Eqn.
 Solving:  Stress period:    25    Time step:     9    Groundwater-Flow Eqn.
 Solving:  Stress period:    25    Time step:    10    Groundwater-Flow Eqn.
 Solving:  Stress period:    25    Time step:    11    Groundwater-Flow Eqn.
 Solving:  Stress period:    25    Time step:    12    Groundwater-Flow Eqn.
 Solving:  Stress period:    25    Time step:    13    Groundwater-Flow Eqn.
 Solving:  Stress period:    25    Time step:    14    Groundwater-Flow Eqn.
 Solving:  Stress period:    25    Time step:    15    Groundwater-Flow Eqn.
 Solving:  Stress period:    25    Time step:    16    Groundwater-Flow Eqn.
 Solving:  Stress period:    25    Time step:    17    Groundwater-Flow Eqn.
 Solving:  Stress period:    25    Time step:    18    Groundwater-Flow Eqn.
 Solving:  Stress period:    25    Time step:    19    Groundwater-Flow Eqn.
 Solving:  Stress period:    25    Time step:    20    Groundwater-Flow Eqn.
 Solving:  Stress period:    25    Time step:    21    Groundwater-Flow Eqn.
 Solving:  Stress period:    25    Time step:    22    Groundwater-Flow Eqn.
 Solving:  Stress period:    25    Time step:    23    Groundwater-Flow Eqn.
 Solving:  Stress period:    25    Time step:    24    Groundwater-Flow Eqn.
 Solving:  Stress period:    25    Time step:    25    Groundwater-Flow Eqn.
 Solving:  Stress period:    25    Time step:    26    Groundwater-Flow Eqn.
 Solving:  Stress period:    25    Time step:    27    Groundwater-Flow Eqn.
 Solving:  Stress period:    25    Time step:    28    Groundwater-Flow Eqn.
 Solving:  Stress period:    25    Time step:    29    Groundwater-Flow Eqn.
 Solving:  Stress period:    25    Time step:    30    Groundwater-Flow Eqn.
 Solving:  Stress period:    26    Time step:     1    Groundwater-Flow Eqn.
 Solving:  Stress period:    26    Time step:     2    Groundwater-Flow Eqn.
 Solving:  Stress period:    26    Time step:     3    Groundwater-Flow Eqn.
 Solving:  Stress period:    26    Time step:     4    Groundwater-Flow Eqn.
 Solving:  Stress period:    26    Time step:     5    Groundwater-Flow Eqn.
 Solving:  Stress period:    26    Time step:     6    Groundwater-Flow Eqn.
 Solving:  Stress period:    26    Time step:     7    Groundwater-Flow Eqn.
 Solving:  Stress period:    26    Time step:     8    Groundwater-Flow Eqn.
 Solving:  Stress period:    26    Time step:     9    Groundwater-Flow Eqn.
 Solving:  Stress period:    26    Time step:    10    Groundwater-Flow Eqn.
 Solving:  Stress period:    26    Time step:    11    Groundwater-Flow Eqn.
 Solving:  Stress period:    26    Time step:    12    Groundwater-Flow Eqn.
 Solving:  Stress period:    26    Time step:    13    Groundwater-Flow Eqn.
 Solving:  Stress period:    26    Time step:    14    Groundwater-Flow Eqn.
 Solving:  Stress period:    26    Time step:    15    Groundwater-Flow Eqn.
 Solving:  Stress period:    26    Time step:    16    Groundwater-Flow Eqn.
 Solving:  Stress period:    26    Time step:    17    Groundwater-Flow Eqn.
 Solving:  Stress period:    26    Time step:    18    Groundwater-Flow Eqn.
 Solving:  Stress period:    26    Time step:    19    Groundwater-Flow Eqn.
 Solving:  Stress period:    26    Time step:    20    Groundwater-Flow Eqn.
 Solving:  Stress period:    26    Time step:    21    Groundwater-Flow Eqn.
 Solving:  Stress period:    26    Time step:    22    Groundwater-Flow Eqn.
 Solving:  Stress period:    26    Time step:    23    Groundwater-Flow Eqn.
 Solving:  Stress period:    26    Time step:    24    Groundwater-Flow Eqn.
 Solving:  Stress period:    26    Time step:    25    Groundwater-Flow Eqn.
 Solving:  Stress period:    26    Time step:    26    Groundwater-Flow Eqn.
 Solving:  Stress period:    26    Time step:    27    Groundwater-Flow Eqn.
 Solving:  Stress period:    26    Time step:    28    Groundwater-Flow Eqn.
 Solving:  Stress period:    26    Time step:    29    Groundwater-Flow Eqn.
 Solving:  Stress period:    26    Time step:    30    Groundwater-Flow Eqn.
 Solving:  Stress period:    27    Time step:     1    Groundwater-Flow Eqn.
 Solving:  Stress period:    27    Time step:     2    Groundwater-Flow Eqn.
 Solving:  Stress period:    27    Time step:     3    Groundwater-Flow Eqn.
 Solving:  Stress period:    27    Time step:     4    Groundwater-Flow Eqn.
 Solving:  Stress period:    27    Time step:     5    Groundwater-Flow Eqn.
 Solving:  Stress period:    27    Time step:     6    Groundwater-Flow Eqn.
 Solving:  Stress period:    27    Time step:     7    Groundwater-Flow Eqn.
 Solving:  Stress period:    27    Time step:     8    Groundwater-Flow Eqn.
 Solving:  Stress period:    27    Time step:     9    Groundwater-Flow Eqn.
 Solving:  Stress period:    27    Time step:    10    Groundwater-Flow Eqn.
 Solving:  Stress period:    27    Time step:    11    Groundwater-Flow Eqn.
 Solving:  Stress period:    27    Time step:    12    Groundwater-Flow Eqn.
 Solving:  Stress period:    27    Time step:    13    Groundwater-Flow Eqn.
 Solving:  Stress period:    27    Time step:    14    Groundwater-Flow Eqn.
 Solving:  Stress period:    27    Time step:    15    Groundwater-Flow Eqn.
 Solving:  Stress period:    27    Time step:    16    Groundwater-Flow Eqn.
 Solving:  Stress period:    27    Time step:    17    Groundwater-Flow Eqn.
 Solving:  Stress period:    27    Time step:    18    Groundwater-Flow Eqn.
 Solving:  Stress period:    27    Time step:    19    Groundwater-Flow Eqn.
 Solving:  Stress period:    27    Time step:    20    Groundwater-Flow Eqn.
 Solving:  Stress period:    27    Time step:    21    Groundwater-Flow Eqn.
 Solving:  Stress period:    27    Time step:    22    Groundwater-Flow Eqn.
 Solving:  Stress period:    27    Time step:    23    Groundwater-Flow Eqn.
 Solving:  Stress period:    27    Time step:    24    Groundwater-Flow Eqn.
 Solving:  Stress period:    27    Time step:    25    Groundwater-Flow Eqn.
 Solving:  Stress period:    27    Time step:    26    Groundwater-Flow Eqn.
 Solving:  Stress period:    27    Time step:    27    Groundwater-Flow Eqn.
 Solving:  Stress period:    27    Time step:    28    Groundwater-Flow Eqn.
 Solving:  Stress period:    27    Time step:    29    Groundwater-Flow Eqn.
 Solving:  Stress period:    27    Time step:    30    Groundwater-Flow Eqn.
 Solving:  Stress period:    28    Time step:     1    Groundwater-Flow Eqn.
 Solving:  Stress period:    28    Time step:     2    Groundwater-Flow Eqn.
 Solving:  Stress period:    28    Time step:     3    Groundwater-Flow Eqn.
 Solving:  Stress period:    28    Time step:     4    Groundwater-Flow Eqn.
 Solving:  Stress period:    28    Time step:     5    Groundwater-Flow Eqn.
 Solving:  Stress period:    28    Time step:     6    Groundwater-Flow Eqn.
 Solving:  Stress period:    28    Time step:     7    Groundwater-Flow Eqn.
 Solving:  Stress period:    28    Time step:     8    Groundwater-Flow Eqn.
 Solving:  Stress period:    28    Time step:     9    Groundwater-Flow Eqn.
 Solving:  Stress period:    28    Time step:    10    Groundwater-Flow Eqn.
 Solving:  Stress period:    28    Time step:    11    Groundwater-Flow Eqn.
 Solving:  Stress period:    28    Time step:    12    Groundwater-Flow Eqn.
 Solving:  Stress period:    28    Time step:    13    Groundwater-Flow Eqn.
 Solving:  Stress period:    28    Time step:    14    Groundwater-Flow Eqn.
 Solving:  Stress period:    28    Time step:    15    Groundwater-Flow Eqn.
 Solving:  Stress period:    28    Time step:    16    Groundwater-Flow Eqn.
 Solving:  Stress period:    28    Time step:    17    Groundwater-Flow Eqn.
 Solving:  Stress period:    28    Time step:    18    Groundwater-Flow Eqn.
 Solving:  Stress period:    28    Time step:    19    Groundwater-Flow Eqn.
 Solving:  Stress period:    28    Time step:    20    Groundwater-Flow Eqn.
 Solving:  Stress period:    28    Time step:    21    Groundwater-Flow Eqn.
 Solving:  Stress period:    28    Time step:    22    Groundwater-Flow Eqn.
 Solving:  Stress period:    28    Time step:    23    Groundwater-Flow Eqn.
 Solving:  Stress period:    28    Time step:    24    Groundwater-Flow Eqn.
 Solving:  Stress period:    28    Time step:    25    Groundwater-Flow Eqn.
 Solving:  Stress period:    28    Time step:    26    Groundwater-Flow Eqn.
 Solving:  Stress period:    28    Time step:    27    Groundwater-Flow Eqn.
 Solving:  Stress period:    28    Time step:    28    Groundwater-Flow Eqn.
 Solving:  Stress period:    28    Time step:    29    Groundwater-Flow Eqn.
 Solving:  Stress period:    28    Time step:    30    Groundwater-Flow Eqn.
 Solving:  Stress period:    29    Time step:     1    Groundwater-Flow Eqn.
 Solving:  Stress period:    29    Time step:     2    Groundwater-Flow Eqn.
 Solving:  Stress period:    29    Time step:     3    Groundwater-Flow Eqn.
 Solving:  Stress period:    29    Time step:     4    Groundwater-Flow Eqn.
 Solving:  Stress period:    29    Time step:     5    Groundwater-Flow Eqn.
 Solving:  Stress period:    29    Time step:     6    Groundwater-Flow Eqn.
 Solving:  Stress period:    29    Time step:     7    Groundwater-Flow Eqn.
 Solving:  Stress period:    29    Time step:     8    Groundwater-Flow Eqn.
 Solving:  Stress period:    29    Time step:     9    Groundwater-Flow Eqn.
 Solving:  Stress period:    29    Time step:    10    Groundwater-Flow Eqn.
 Solving:  Stress period:    29    Time step:    11    Groundwater-Flow Eqn.
 Solving:  Stress period:    29    Time step:    12    Groundwater-Flow Eqn.
 Solving:  Stress period:    29    Time step:    13    Groundwater-Flow Eqn.
 Solving:  Stress period:    29    Time step:    14    Groundwater-Flow Eqn.
 Solving:  Stress period:    29    Time step:    15    Groundwater-Flow Eqn.
 Solving:  Stress period:    29    Time step:    16    Groundwater-Flow Eqn.
 Solving:  Stress period:    29    Time step:    17    Groundwater-Flow Eqn.
 Solving:  Stress period:    29    Time step:    18    Groundwater-Flow Eqn.
 Solving:  Stress period:    29    Time step:    19    Groundwater-Flow Eqn.
 Solving:  Stress period:    29    Time step:    20    Groundwater-Flow Eqn.
 Solving:  Stress period:    29    Time step:    21    Groundwater-Flow Eqn.
 Solving:  Stress period:    29    Time step:    22    Groundwater-Flow Eqn.
 Solving:  Stress period:    29    Time step:    23    Groundwater-Flow Eqn.
 Solving:  Stress period:    29    Time step:    24    Groundwater-Flow Eqn.
 Solving:  Stress period:    29    Time step:    25    Groundwater-Flow Eqn.
 Solving:  Stress period:    29    Time step:    26    Groundwater-Flow Eqn.
 Solving:  Stress period:    29    Time step:    27    Groundwater-Flow Eqn.
 Solving:  Stress period:    29    Time step:    28    Groundwater-Flow Eqn.
 Solving:  Stress period:    29    Time step:    29    Groundwater-Flow Eqn.
 Solving:  Stress period:    29    Time step:    30    Groundwater-Flow Eqn.
 Solving:  Stress period:    30    Time step:     1    Groundwater-Flow Eqn.
 Solving:  Stress period:    30    Time step:     2    Groundwater-Flow Eqn.
 Solving:  Stress period:    30    Time step:     3    Groundwater-Flow Eqn.
 Solving:  Stress period:    30    Time step:     4    Groundwater-Flow Eqn.
 Solving:  Stress period:    30    Time step:     5    Groundwater-Flow Eqn.
 Solving:  Stress period:    30    Time step:     6    Groundwater-Flow Eqn.
 Solving:  Stress period:    30    Time step:     7    Groundwater-Flow Eqn.
 Solving:  Stress period:    30    Time step:     8    Groundwater-Flow Eqn.
 Solving:  Stress period:    30    Time step:     9    Groundwater-Flow Eqn.
 Solving:  Stress period:    30    Time step:    10    Groundwater-Flow Eqn.
 Solving:  Stress period:    30    Time step:    11    Groundwater-Flow Eqn.
 Solving:  Stress period:    30    Time step:    12    Groundwater-Flow Eqn.
 Solving:  Stress period:    30    Time step:    13    Groundwater-Flow Eqn.
 Solving:  Stress period:    30    Time step:    14    Groundwater-Flow Eqn.
 Solving:  Stress period:    30    Time step:    15    Groundwater-Flow Eqn.
 Solving:  Stress period:    30    Time step:    16    Groundwater-Flow Eqn.
 Solving:  Stress period:    30    Time step:    17    Groundwater-Flow Eqn.
 Solving:  Stress period:    30    Time step:    18    Groundwater-Flow Eqn.
 Solving:  Stress period:    30    Time step:    19    Groundwater-Flow Eqn.
 Solving:  Stress period:    30    Time step:    20    Groundwater-Flow Eqn.
 Solving:  Stress period:    30    Time step:    21    Groundwater-Flow Eqn.
 Solving:  Stress period:    30    Time step:    22    Groundwater-Flow Eqn.
 Solving:  Stress period:    30    Time step:    23    Groundwater-Flow Eqn.
 Solving:  Stress period:    30    Time step:    24    Groundwater-Flow Eqn.
 Solving:  Stress period:    30    Time step:    25    Groundwater-Flow Eqn.
 Solving:  Stress period:    30    Time step:    26    Groundwater-Flow Eqn.
 Solving:  Stress period:    30    Time step:    27    Groundwater-Flow Eqn.
 Solving:  Stress period:    30    Time step:    28    Groundwater-Flow Eqn.
 Solving:  Stress period:    30    Time step:    29    Groundwater-Flow Eqn.
 Solving:  Stress period:    30    Time step:    30    Groundwater-Flow Eqn.
 Solving:  Stress period:    31    Time step:     1    Groundwater-Flow Eqn.
 Solving:  Stress period:    31    Time step:     2    Groundwater-Flow Eqn.
 Solving:  Stress period:    31    Time step:     3    Groundwater-Flow Eqn.
 Solving:  Stress period:    31    Time step:     4    Groundwater-Flow Eqn.
 Solving:  Stress period:    31    Time step:     5    Groundwater-Flow Eqn.
 Solving:  Stress period:    31    Time step:     6    Groundwater-Flow Eqn.
 Solving:  Stress period:    31    Time step:     7    Groundwater-Flow Eqn.
 Solving:  Stress period:    31    Time step:     8    Groundwater-Flow Eqn.
 Solving:  Stress period:    31    Time step:     9    Groundwater-Flow Eqn.
 Solving:  Stress period:    31    Time step:    10    Groundwater-Flow Eqn.
 Solving:  Stress period:    31    Time step:    11    Groundwater-Flow Eqn.
 Solving:  Stress period:    31    Time step:    12    Groundwater-Flow Eqn.
 Solving:  Stress period:    31    Time step:    13    Groundwater-Flow Eqn.
 Solving:  Stress period:    31    Time step:    14    Groundwater-Flow Eqn.
 Solving:  Stress period:    31    Time step:    15    Groundwater-Flow Eqn.
 Solving:  Stress period:    31    Time step:    16    Groundwater-Flow Eqn.
 Solving:  Stress period:    31    Time step:    17    Groundwater-Flow Eqn.
 Solving:  Stress period:    31    Time step:    18    Groundwater-Flow Eqn.
 Solving:  Stress period:    31    Time step:    19    Groundwater-Flow Eqn.
 Solving:  Stress period:    31    Time step:    20    Groundwater-Flow Eqn.
 Solving:  Stress period:    31    Time step:    21    Groundwater-Flow Eqn.
 Solving:  Stress period:    31    Time step:    22    Groundwater-Flow Eqn.
 Solving:  Stress period:    31    Time step:    23    Groundwater-Flow Eqn.
 Solving:  Stress period:    31    Time step:    24    Groundwater-Flow Eqn.
 Solving:  Stress period:    31    Time step:    25    Groundwater-Flow Eqn.
 Solving:  Stress period:    31    Time step:    26    Groundwater-Flow Eqn.
 Solving:  Stress period:    31    Time step:    27    Groundwater-Flow Eqn.
 Solving:  Stress period:    31    Time step:    28    Groundwater-Flow Eqn.
 Solving:  Stress period:    31    Time step:    29    Groundwater-Flow Eqn.
 Solving:  Stress period:    31    Time step:    30    Groundwater-Flow Eqn.
 Solving:  Stress period:    32    Time step:     1    Groundwater-Flow Eqn.
 Solving:  Stress period:    32    Time step:     2    Groundwater-Flow Eqn.
 Solving:  Stress period:    32    Time step:     3    Groundwater-Flow Eqn.
 Solving:  Stress period:    32    Time step:     4    Groundwater-Flow Eqn.
 Solving:  Stress period:    32    Time step:     5    Groundwater-Flow Eqn.
 Solving:  Stress period:    32    Time step:     6    Groundwater-Flow Eqn.
 Solving:  Stress period:    32    Time step:     7    Groundwater-Flow Eqn.
 Solving:  Stress period:    32    Time step:     8    Groundwater-Flow Eqn.
 Solving:  Stress period:    32    Time step:     9    Groundwater-Flow Eqn.
 Solving:  Stress period:    32    Time step:    10    Groundwater-Flow Eqn.
 Solving:  Stress period:    32    Time step:    11    Groundwater-Flow Eqn.
 Solving:  Stress period:    32    Time step:    12    Groundwater-Flow Eqn.
 Solving:  Stress period:    32    Time step:    13    Groundwater-Flow Eqn.
 Solving:  Stress period:    32    Time step:    14    Groundwater-Flow Eqn.
 Solving:  Stress period:    32    Time step:    15    Groundwater-Flow Eqn.
 Solving:  Stress period:    32    Time step:    16    Groundwater-Flow Eqn.
 Solving:  Stress period:    32    Time step:    17    Groundwater-Flow Eqn.
 Solving:  Stress period:    32    Time step:    18    Groundwater-Flow Eqn.
 Solving:  Stress period:    32    Time step:    19    Groundwater-Flow Eqn.
 Solving:  Stress period:    32    Time step:    20    Groundwater-Flow Eqn.
 Solving:  Stress period:    32    Time step:    21    Groundwater-Flow Eqn.
 Solving:  Stress period:    32    Time step:    22    Groundwater-Flow Eqn.
 Solving:  Stress period:    32    Time step:    23    Groundwater-Flow Eqn.
 Solving:  Stress period:    32    Time step:    24    Groundwater-Flow Eqn.
 Solving:  Stress period:    32    Time step:    25    Groundwater-Flow Eqn.
 Solving:  Stress period:    32    Time step:    26    Groundwater-Flow Eqn.
 Solving:  Stress period:    32    Time step:    27    Groundwater-Flow Eqn.
 Solving:  Stress period:    32    Time step:    28    Groundwater-Flow Eqn.
 Solving:  Stress period:    32    Time step:    29    Groundwater-Flow Eqn.
 Solving:  Stress period:    32    Time step:    30    Groundwater-Flow Eqn.
 Solving:  Stress period:    33    Time step:     1    Groundwater-Flow Eqn.
 Solving:  Stress period:    33    Time step:     2    Groundwater-Flow Eqn.
 Solving:  Stress period:    33    Time step:     3    Groundwater-Flow Eqn.
 Solving:  Stress period:    33    Time step:     4    Groundwater-Flow Eqn.
 Solving:  Stress period:    33    Time step:     5    Groundwater-Flow Eqn.
 Solving:  Stress period:    33    Time step:     6    Groundwater-Flow Eqn.
 Solving:  Stress period:    33    Time step:     7    Groundwater-Flow Eqn.
 Solving:  Stress period:    33    Time step:     8    Groundwater-Flow Eqn.
 Solving:  Stress period:    33    Time step:     9    Groundwater-Flow Eqn.
 Solving:  Stress period:    33    Time step:    10    Groundwater-Flow Eqn.
 Solving:  Stress period:    33    Time step:    11    Groundwater-Flow Eqn.
 Solving:  Stress period:    33    Time step:    12    Groundwater-Flow Eqn.
 Solving:  Stress period:    33    Time step:    13    Groundwater-Flow Eqn.
 Solving:  Stress period:    33    Time step:    14    Groundwater-Flow Eqn.
 Solving:  Stress period:    33    Time step:    15    Groundwater-Flow Eqn.
 Solving:  Stress period:    33    Time step:    16    Groundwater-Flow Eqn.
 Solving:  Stress period:    33    Time step:    17    Groundwater-Flow Eqn.
 Solving:  Stress period:    33    Time step:    18    Groundwater-Flow Eqn.
 Solving:  Stress period:    33    Time step:    19    Groundwater-Flow Eqn.
 Solving:  Stress period:    33    Time step:    20    Groundwater-Flow Eqn.
 Solving:  Stress period:    33    Time step:    21    Groundwater-Flow Eqn.
 Solving:  Stress period:    33    Time step:    22    Groundwater-Flow Eqn.
 Solving:  Stress period:    33    Time step:    23    Groundwater-Flow Eqn.
 Solving:  Stress period:    33    Time step:    24    Groundwater-Flow Eqn.
 Solving:  Stress period:    33    Time step:    25    Groundwater-Flow Eqn.
 Solving:  Stress period:    33    Time step:    26    Groundwater-Flow Eqn.
 Solving:  Stress period:    33    Time step:    27    Groundwater-Flow Eqn.
 Solving:  Stress period:    33    Time step:    28    Groundwater-Flow Eqn.
 Solving:  Stress period:    33    Time step:    29    Groundwater-Flow Eqn.
 Solving:  Stress period:    33    Time step:    30    Groundwater-Flow Eqn.
 Solving:  Stress period:    34    Time step:     1    Groundwater-Flow Eqn.
 Solving:  Stress period:    34    Time step:     2    Groundwater-Flow Eqn.
 Solving:  Stress period:    34    Time step:     3    Groundwater-Flow Eqn.
 Solving:  Stress period:    34    Time step:     4    Groundwater-Flow Eqn.
 Solving:  Stress period:    34    Time step:     5    Groundwater-Flow Eqn.
 Solving:  Stress period:    34    Time step:     6    Groundwater-Flow Eqn.
 Solving:  Stress period:    34    Time step:     7    Groundwater-Flow Eqn.
 Solving:  Stress period:    34    Time step:     8    Groundwater-Flow Eqn.
 Solving:  Stress period:    34    Time step:     9    Groundwater-Flow Eqn.
 Solving:  Stress period:    34    Time step:    10    Groundwater-Flow Eqn.
 Solving:  Stress period:    34    Time step:    11    Groundwater-Flow Eqn.
 Solving:  Stress period:    34    Time step:    12    Groundwater-Flow Eqn.
 Solving:  Stress period:    34    Time step:    13    Groundwater-Flow Eqn.
 Solving:  Stress period:    34    Time step:    14    Groundwater-Flow Eqn.
 Solving:  Stress period:    34    Time step:    15    Groundwater-Flow Eqn.
 Solving:  Stress period:    34    Time step:    16    Groundwater-Flow Eqn.
 Solving:  Stress period:    34    Time step:    17    Groundwater-Flow Eqn.
 Solving:  Stress period:    34    Time step:    18    Groundwater-Flow Eqn.
 Solving:  Stress period:    34    Time step:    19    Groundwater-Flow Eqn.
 Solving:  Stress period:    34    Time step:    20    Groundwater-Flow Eqn.
 Solving:  Stress period:    34    Time step:    21    Groundwater-Flow Eqn.
 Solving:  Stress period:    34    Time step:    22    Groundwater-Flow Eqn.
 Solving:  Stress period:    34    Time step:    23    Groundwater-Flow Eqn.
 Solving:  Stress period:    34    Time step:    24    Groundwater-Flow Eqn.
 Solving:  Stress period:    34    Time step:    25    Groundwater-Flow Eqn.
 Solving:  Stress period:    34    Time step:    26    Groundwater-Flow Eqn.
 Solving:  Stress period:    34    Time step:    27    Groundwater-Flow Eqn.
 Solving:  Stress period:    34    Time step:    28    Groundwater-Flow Eqn.
 Solving:  Stress period:    34    Time step:    29    Groundwater-Flow Eqn.
 Solving:  Stress period:    34    Time step:    30    Groundwater-Flow Eqn.
 Solving:  Stress period:    35    Time step:     1    Groundwater-Flow Eqn.
 Solving:  Stress period:    35    Time step:     2    Groundwater-Flow Eqn.
 Solving:  Stress period:    35    Time step:     3    Groundwater-Flow Eqn.
 Solving:  Stress period:    35    Time step:     4    Groundwater-Flow Eqn.
 Solving:  Stress period:    35    Time step:     5    Groundwater-Flow Eqn.
 Solving:  Stress period:    35    Time step:     6    Groundwater-Flow Eqn.
 Solving:  Stress period:    35    Time step:     7    Groundwater-Flow Eqn.
 Solving:  Stress period:    35    Time step:     8    Groundwater-Flow Eqn.
 Solving:  Stress period:    35    Time step:     9    Groundwater-Flow Eqn.
 Solving:  Stress period:    35    Time step:    10    Groundwater-Flow Eqn.
 Solving:  Stress period:    35    Time step:    11    Groundwater-Flow Eqn.
 Solving:  Stress period:    35    Time step:    12    Groundwater-Flow Eqn.
 Solving:  Stress period:    35    Time step:    13    Groundwater-Flow Eqn.
 Solving:  Stress period:    35    Time step:    14    Groundwater-Flow Eqn.
 Solving:  Stress period:    35    Time step:    15    Groundwater-Flow Eqn.
 Solving:  Stress period:    35    Time step:    16    Groundwater-Flow Eqn.
 Solving:  Stress period:    35    Time step:    17    Groundwater-Flow Eqn.
 Solving:  Stress period:    35    Time step:    18    Groundwater-Flow Eqn.
[...]
 Solving:  Stress period:    41    Time step:    17    Groundwater-Flow Eqn.
 Solving:  Stress period:    41    Time step:    18    Groundwater-Flow Eqn.
 Solving:  Stress period:    41    Time step:    19    Groundwater-Flow Eqn.
 Solving:  Stress period:    41    Time step:    20    Groundwater-Flow Eqn.
 Solving:  Stress period:    41    Time step:    21    Groundwater-Flow Eqn.
 Solving:  Stress period:    41    Time step:    22    Groundwater-Flow Eqn.
 Solving:  Stress period:    41    Time step:    23    Groundwater-Flow Eqn.
 Solving:  Stress period:    41    Time step:    24    Groundwater-Flow Eqn.
 Solving:  Stress period:    41    Time step:    25    Groundwater-Flow Eqn.
 Solving:  Stress period:    41    Time step:    26    Groundwater-Flow Eqn.
 Solving:  Stress period:    41    Time step:    27    Groundwater-Flow Eqn.
 Solving:  Stress period:    41    Time step:    28    Groundwater-Flow Eqn.
 Solving:  Stress period:    41    Time step:    29    Groundwater-Flow Eqn.
 Solving:  Stress period:    41    Time step:    30    Groundwater-Flow Eqn.
 Solving:  Stress period:    42    Time step:     1    Groundwater-Flow Eqn.
 Solving:  Stress period:    42    Time step:     2    Groundwater-Flow Eqn.
 Solving:  Stress period:    42    Time step:     3    Groundwater-Flow Eqn.
 Solving:  Stress period:    42    Time step:     4    Groundwater-Flow Eqn.
 Solving:  Stress period:    42    Time step:     5    Groundwater-Flow Eqn.
 Solving:  Stress period:    42    Time step:     6    Groundwater-Flow Eqn.
 Solving:  Stress period:    42    Time step:     7    Groundwater-Flow Eqn.
 Solving:  Stress period:    42    Time step:     8    Groundwater-Flow Eqn.
 Solving:  Stress period:    42    Time step:     9    Groundwater-Flow Eqn.
 Solving:  Stress period:    42    Time step:    10    Groundwater-Flow Eqn.
 Solving:  Stress period:    42    Time step:    11    Groundwater-Flow Eqn.
 Solving:  Stress period:    42    Time step:    12    Groundwater-Flow Eqn.
 Solving:  Stress period:    42    Time step:    13    Groundwater-Flow Eqn.
 Solving:  Stress period:    42    Time step:    14    Groundwater-Flow Eqn.
 Solving:  Stress period:    42    Time step:    15    Groundwater-Flow Eqn.
 Solving:  Stress period:    42    Time step:    16    Groundwater-Flow Eqn.
 Solving:  Stress period:    42    Time step:    17    Groundwater-Flow Eqn.
 Solving:  Stress period:    42    Time step:    18    Groundwater-Flow Eqn.
 Solving:  Stress period:    42    Time step:    19    Groundwater-Flow Eqn.
 Solving:  Stress period:    42    Time step:    20    Groundwater-Flow Eqn.
 Solving:  Stress period:    42    Time step:    21    Groundwater-Flow Eqn.
 Solving:  Stress period:    42    Time step:    22    Groundwater-Flow Eqn.
 Solving:  Stress period:    42    Time step:    23    Groundwater-Flow Eqn.
 Solving:  Stress period:    42    Time step:    24    Groundwater-Flow Eqn.
 Solving:  Stress period:    42    Time step:    25    Groundwater-Flow Eqn.
 Solving:  Stress period:    42    Time step:    26    Groundwater-Flow Eqn.
 Solving:  Stress period:    42    Time step:    27    Groundwater-Flow Eqn.
 Solving:  Stress period:    42    Time step:    28    Groundwater-Flow Eqn.
 Solving:  Stress period:    42    Time step:    29    Groundwater-Flow Eqn.
 Solving:  Stress period:    42    Time step:    30    Groundwater-Flow Eqn.
 Solving:  Stress period:    43    Time step:     1    Groundwater-Flow Eqn.
 Solving:  Stress period:    43    Time step:     2    Groundwater-Flow Eqn.
 Solving:  Stress period:    43    Time step:     3    Groundwater-Flow Eqn.
 Solving:  Stress period:    43    Time step:     4    Groundwater-Flow Eqn.
 Solving:  Stress period:    43    Time step:     5    Groundwater-Flow Eqn.
 Solving:  Stress period:    43    Time step:     6    Groundwater-Flow Eqn.
 Solving:  Stress period:    43    Time step:     7    Groundwater-Flow Eqn.
 Solving:  Stress period:    43    Time step:     8    Groundwater-Flow Eqn.
 Solving:  Stress period:    43    Time step:     9    Groundwater-Flow Eqn.
 Solving:  Stress period:    43    Time step:    10    Groundwater-Flow Eqn.
 Solving:  Stress period:    43    Time step:    11    Groundwater-Flow Eqn.
 Solving:  Stress period:    43    Time step:    12    Groundwater-Flow Eqn.
 Solving:  Stress period:    43    Time step:    13    Groundwater-Flow Eqn.
 Solving:  Stress period:    43    Time step:    14    Groundwater-Flow Eqn.
 Solving:  Stress period:    43    Time step:    15    Groundwater-Flow Eqn.
 Solving:  Stress period:    43    Time step:    16    Groundwater-Flow Eqn.
 Solving:  Stress period:    43    Time step:    17    Groundwater-Flow Eqn.
 Solving:  Stress period:    43    Time step:    18    Groundwater-Flow Eqn.
 Solving:  Stress period:    43    Time step:    19    Groundwater-Flow Eqn.
 Solving:  Stress period:    43    Time step:    20    Groundwater-Flow Eqn.
 Solving:  Stress period:    43    Time step:    21    Groundwater-Flow Eqn.
 Solving:  Stress period:    43    Time step:    22    Groundwater-Flow Eqn.
 Solving:  Stress period:    43    Time step:    23    Groundwater-Flow Eqn.
 Solving:  Stress period:    43    Time step:    24    Groundwater-Flow Eqn.
 Solving:  Stress period:    43    Time step:    25    Groundwater-Flow Eqn.
 Solving:  Stress period:    43    Time step:    26    Groundwater-Flow Eqn.
 Solving:  Stress period:    43    Time step:    27    Groundwater-Flow Eqn.
 Solving:  Stress period:    43    Time step:    28    Groundwater-Flow Eqn.
 Solving:  Stress period:    43    Time step:    29    Groundwater-Flow Eqn.
 Solving:  Stress period:    43    Time step:    30    Groundwater-Flow Eqn.
 Solving:  Stress period:    44    Time step:     1    Groundwater-Flow Eqn.
 Solving:  Stress period:    44    Time step:     2    Groundwater-Flow Eqn.
 Solving:  Stress period:    44    Time step:     3    Groundwater-Flow Eqn.
 Solving:  Stress period:    44    Time step:     4    Groundwater-Flow Eqn.
 Solving:  Stress period:    44    Time step:     5    Groundwater-Flow Eqn.
 Solving:  Stress period:    44    Time step:     6    Groundwater-Flow Eqn.
 Solving:  Stress period:    44    Time step:     7    Groundwater-Flow Eqn.
 Solving:  Stress period:    44    Time step:     8    Groundwater-Flow Eqn.
 Solving:  Stress period:    44    Time step:     9    Groundwater-Flow Eqn.
 Solving:  Stress period:    44    Time step:    10    Groundwater-Flow Eqn.
 Solving:  Stress period:    44    Time step:    11    Groundwater-Flow Eqn.
 Solving:  Stress period:    44    Time step:    12    Groundwater-Flow Eqn.
 Solving:  Stress period:    44    Time step:    13    Groundwater-Flow Eqn.
 Solving:  Stress period:    44    Time step:    14    Groundwater-Flow Eqn.
 Solving:  Stress period:    44    Time step:    15    Groundwater-Flow Eqn.
 Solving:  Stress period:    44    Time step:    16    Groundwater-Flow Eqn.
 Solving:  Stress period:    44    Time step:    17    Groundwater-Flow Eqn.
 Solving:  Stress period:    44    Time step:    18    Groundwater-Flow Eqn.
 Solving:  Stress period:    44    Time step:    19    Groundwater-Flow Eqn.
 Solving:  Stress period:    44    Time step:    20    Groundwater-Flow Eqn.
 Solving:  Stress period:    44    Time step:    21    Groundwater-Flow Eqn.
 Solving:  Stress period:    44    Time step:    22    Groundwater-Flow Eqn.
 Solving:  Stress period:    44    Time step:    23    Groundwater-Flow Eqn.
 Solving:  Stress period:    44    Time step:    24    Groundwater-Flow Eqn.
 Solving:  Stress period:    44    Time step:    25    Groundwater-Flow Eqn.
 Solving:  Stress period:    44    Time step:    26    Groundwater-Flow Eqn.
 Solving:  Stress period:    44    Time step:    27    Groundwater-Flow Eqn.
 Solving:  Stress period:    44    Time step:    28    Groundwater-Flow Eqn.
 Solving:  Stress period:    44    Time step:    29    Groundwater-Flow Eqn.
 Solving:  Stress period:    44    Time step:    30    Groundwater-Flow Eqn.
 Solving:  Stress period:    45    Time step:     1    Groundwater-Flow Eqn.
 Solving:  Stress period:    45    Time step:     2    Groundwater-Flow Eqn.
 Solving:  Stress period:    45    Time step:     3    Groundwater-Flow Eqn.
 Solving:  Stress period:    45    Time step:     4    Groundwater-Flow Eqn.
 Solving:  Stress period:    45    Time step:     5    Groundwater-Flow Eqn.
 Solving:  Stress period:    45    Time step:     6    Groundwater-Flow Eqn.
 Solving:  Stress period:    45    Time step:     7    Groundwater-Flow Eqn.
 Solving:  Stress period:    45    Time step:     8    Groundwater-Flow Eqn.
 Solving:  Stress period:    45    Time step:     9    Groundwater-Flow Eqn.
 Solving:  Stress period:    45    Time step:    10    Groundwater-Flow Eqn.
 Solving:  Stress period:    45    Time step:    11    Groundwater-Flow Eqn.
 Solving:  Stress period:    45    Time step:    12    Groundwater-Flow Eqn.
 Solving:  Stress period:    45    Time step:    13    Groundwater-Flow Eqn.
 Solving:  Stress period:    45    Time step:    14    Groundwater-Flow Eqn.
 Solving:  Stress period:    45    Time step:    15    Groundwater-Flow Eqn.
 Solving:  Stress period:    45    Time step:    16    Groundwater-Flow Eqn.
 Solving:  Stress period:    45    Time step:    17    Groundwater-Flow Eqn.
 Solving:  Stress period:    45    Time step:    18    Groundwater-Flow Eqn.
 Solving:  Stress period:    45    Time step:    19    Groundwater-Flow Eqn.
 Solving:  Stress period:    45    Time step:    20    Groundwater-Flow Eqn.
 Solving:  Stress period:    45    Time step:    21    Groundwater-Flow Eqn.
 Solving:  Stress period:    45    Time step:    22    Groundwater-Flow Eqn.
 Solving:  Stress period:    45    Time step:    23    Groundwater-Flow Eqn.
 Solving:  Stress period:    45    Time step:    24    Groundwater-Flow Eqn.
 Solving:  Stress period:    45    Time step:    25    Groundwater-Flow Eqn.
 Solving:  Stress period:    45    Time step:    26    Groundwater-Flow Eqn.
 Solving:  Stress period:    45    Time step:    27    Groundwater-Flow Eqn.
 Solving:  Stress period:    45    Time step:    28    Groundwater-Flow Eqn.
 Solving:  Stress period:    45    Time step:    29    Groundwater-Flow Eqn.
 Solving:  Stress period:    45    Time step:    30    Groundwater-Flow Eqn.
 Solving:  Stress period:    46    Time step:     1    Groundwater-Flow Eqn.
 Solving:  Stress period:    46    Time step:     2    Groundwater-Flow Eqn.
 Solving:  Stress period:    46    Time step:     3    Groundwater-Flow Eqn.
 Solving:  Stress period:    46    Time step:     4    Groundwater-Flow Eqn.
 Solving:  Stress period:    46    Time step:     5    Groundwater-Flow Eqn.
 Solving:  Stress period:    46    Time step:     6    Groundwater-Flow Eqn.
 Solving:  Stress period:    46    Time step:     7    Groundwater-Flow Eqn.
 Solving:  Stress period:    46    Time step:     8    Groundwater-Flow Eqn.
 Solving:  Stress period:    46    Time step:     9    Groundwater-Flow Eqn.
 Solving:  Stress period:    46    Time step:    10    Groundwater-Flow Eqn.
 Solving:  Stress period:    46    Time step:    11    Groundwater-Flow Eqn.
 Solving:  Stress period:    46    Time step:    12    Groundwater-Flow Eqn.
 Solving:  Stress period:    46    Time step:    13    Groundwater-Flow Eqn.
 Solving:  Stress period:    46    Time step:    14    Groundwater-Flow Eqn.
 Solving:  Stress period:    46    Time step:    15    Groundwater-Flow Eqn.
 Solving:  Stress period:    46    Time step:    16    Groundwater-Flow Eqn.
 Solving:  Stress period:    46    Time step:    17    Groundwater-Flow Eqn.
 Solving:  Stress period:    46    Time step:    18    Groundwater-Flow Eqn.
 Solving:  Stress period:    46    Time step:    19    Groundwater-Flow Eqn.
 Solving:  Stress period:    46    Time step:    20    Groundwater-Flow Eqn.
 Solving:  Stress period:    46    Time step:    21    Groundwater-Flow Eqn.
 Solving:  Stress period:    46    Time step:    22    Groundwater-Flow Eqn.
 Solving:  Stress period:    46    Time step:    23    Groundwater-Flow Eqn.
 Solving:  Stress period:    46    Time step:    24    Groundwater-Flow Eqn.
 Solving:  Stress period:    46    Time step:    25    Groundwater-Flow Eqn.
 Solving:  Stress period:    46    Time step:    26    Groundwater-Flow Eqn.
 Solving:  Stress period:    46    Time step:    27    Groundwater-Flow Eqn.
 Solving:  Stress period:    46    Time step:    28    Groundwater-Flow Eqn.
 Solving:  Stress period:    46    Time step:    29    Groundwater-Flow Eqn.
 Solving:  Stress period:    46    Time step:    30    Groundwater-Flow Eqn.
 Solving:  Stress period:    47    Time step:     1    Groundwater-Flow Eqn.
 Solving:  Stress period:    47    Time step:     2    Groundwater-Flow Eqn.
 Solving:  Stress period:    47    Time step:     3    Groundwater-Flow Eqn.
 Solving:  Stress period:    47    Time step:     4    Groundwater-Flow Eqn.
 Solving:  Stress period:    47    Time step:     5    Groundwater-Flow Eqn.
 Solving:  Stress period:    47    Time step:     6    Groundwater-Flow Eqn.
 Solving:  Stress period:    47    Time step:     7    Groundwater-Flow Eqn.
 Solving:  Stress period:    47    Time step:     8    Groundwater-Flow Eqn.
 Solving:  Stress period:    47    Time step:     9    Groundwater-Flow Eqn.
 Solving:  Stress period:    47    Time step:    10    Groundwater-Flow Eqn.
 Solving:  Stress period:    47    Time step:    11    Groundwater-Flow Eqn.
 Solving:  Stress period:    47    Time step:    12    Groundwater-Flow Eqn.
 Solving:  Stress period:    47    Time step:    13    Groundwater-Flow Eqn.
 Solving:  Stress period:    47    Time step:    14    Groundwater-Flow Eqn.
 Solving:  Stress period:    47    Time step:    15    Groundwater-Flow Eqn.
 Solving:  Stress period:    47    Time step:    16    Groundwater-Flow Eqn.
 Solving:  Stress period:    47    Time step:    17    Groundwater-Flow Eqn.
 Solving:  Stress period:    47    Time step:    18    Groundwater-Flow Eqn.
 Solving:  Stress period:    47    Time step:    19    Groundwater-Flow Eqn.
 Solving:  Stress period:    47    Time step:    20    Groundwater-Flow Eqn.
 Solving:  Stress period:    47    Time step:    21    Groundwater-Flow Eqn.
 Solving:  Stress period:    47    Time step:    22    Groundwater-Flow Eqn.
 Solving:  Stress period:    47    Time step:    23    Groundwater-Flow Eqn.
 Solving:  Stress period:    47    Time step:    24    Groundwater-Flow Eqn.
 Solving:  Stress period:    47    Time step:    25    Groundwater-Flow Eqn.
 Solving:  Stress period:    47    Time step:    26    Groundwater-Flow Eqn.
 Solving:  Stress period:    47    Time step:    27    Groundwater-Flow Eqn.
 Solving:  Stress period:    47    Time step:    28    Groundwater-Flow Eqn.
 Solving:  Stress period:    47    Time step:    29    Groundwater-Flow Eqn.
 Solving:  Stress period:    47    Time step:    30    Groundwater-Flow Eqn.
 Solving:  Stress period:    48    Time step:     1    Groundwater-Flow Eqn.
 Solving:  Stress period:    48    Time step:     2    Groundwater-Flow Eqn.
 Solving:  Stress period:    48    Time step:     3    Groundwater-Flow Eqn.
 Solving:  Stress period:    48    Time step:     4    Groundwater-Flow Eqn.
 Solving:  Stress period:    48    Time step:     5    Groundwater-Flow Eqn.
 Solving:  Stress period:    48    Time step:     6    Groundwater-Flow Eqn.
 Solving:  Stress period:    48    Time step:     7    Groundwater-Flow Eqn.
 Solving:  Stress period:    48    Time step:     8    Groundwater-Flow Eqn.
 Solving:  Stress period:    48    Time step:     9    Groundwater-Flow Eqn.
 Solving:  Stress period:    48    Time step:    10    Groundwater-Flow Eqn.
 Solving:  Stress period:    48    Time step:    11    Groundwater-Flow Eqn.
 Solving:  Stress period:    48    Time step:    12    Groundwater-Flow Eqn.
 Solving:  Stress period:    48    Time step:    13    Groundwater-Flow Eqn.
 Solving:  Stress period:    48    Time step:    14    Groundwater-Flow Eqn.
 Solving:  Stress period:    48    Time step:    15    Groundwater-Flow Eqn.
 Solving:  Stress period:    48    Time step:    16    Groundwater-Flow Eqn.
 Solving:  Stress period:    48    Time step:    17    Groundwater-Flow Eqn.
 Solving:  Stress period:    48    Time step:    18    Groundwater-Flow Eqn.
 Solving:  Stress period:    48    Time step:    19    Groundwater-Flow Eqn.
 Solving:  Stress period:    48    Time step:    20    Groundwater-Flow Eqn.
 Solving:  Stress period:    48    Time step:    21    Groundwater-Flow Eqn.
 Solving:  Stress period:    48    Time step:    22    Groundwater-Flow Eqn.
 Solving:  Stress period:    48    Time step:    23    Groundwater-Flow Eqn.
 Solving:  Stress period:    48    Time step:    24    Groundwater-Flow Eqn.
 Solving:  Stress period:    48    Time step:    25    Groundwater-Flow Eqn.
 Solving:  Stress period:    48    Time step:    26    Groundwater-Flow Eqn.
 Solving:  Stress period:    48    Time step:    27    Groundwater-Flow Eqn.
 Solving:  Stress period:    48    Time step:    28    Groundwater-Flow Eqn.
 Solving:  Stress period:    48    Time step:    29    Groundwater-Flow Eqn.
 Solving:  Stress period:    48    Time step:    30    Groundwater-Flow Eqn.
 Solving:  Stress period:    49    Time step:     1    Groundwater-Flow Eqn.
 Solving:  Stress period:    49    Time step:     2    Groundwater-Flow Eqn.
 Solving:  Stress period:    49    Time step:     3    Groundwater-Flow Eqn.
 Solving:  Stress period:    49    Time step:     4    Groundwater-Flow Eqn.
 Solving:  Stress period:    49    Time step:     5    Groundwater-Flow Eqn.
 Solving:  Stress period:    49    Time step:     6    Groundwater-Flow Eqn.
 Solving:  Stress period:    49    Time step:     7    Groundwater-Flow Eqn.
 Solving:  Stress period:    49    Time step:     8    Groundwater-Flow Eqn.
 Solving:  Stress period:    49    Time step:     9    Groundwater-Flow Eqn.
 Solving:  Stress period:    49    Time step:    10    Groundwater-Flow Eqn.
 Solving:  Stress period:    49    Time step:    11    Groundwater-Flow Eqn.
 Solving:  Stress period:    49    Time step:    12    Groundwater-Flow Eqn.
 Solving:  Stress period:    49    Time step:    13    Groundwater-Flow Eqn.
 Solving:  Stress period:    49    Time step:    14    Groundwater-Flow Eqn.
 Solving:  Stress period:    49    Time step:    15    Groundwater-Flow Eqn.
 Solving:  Stress period:    49    Time step:    16    Groundwater-Flow Eqn.
 Solving:  Stress period:    49    Time step:    17    Groundwater-Flow Eqn.
 Solving:  Stress period:    49    Time step:    18    Groundwater-Flow Eqn.
 Solving:  Stress period:    49    Time step:    19    Groundwater-Flow Eqn.
 Solving:  Stress period:    49    Time step:    20    Groundwater-Flow Eqn.
 Solving:  Stress period:    49    Time step:    21    Groundwater-Flow Eqn.
 Solving:  Stress period:    49    Time step:    22    Groundwater-Flow Eqn.
 Solving:  Stress period:    49    Time step:    23    Groundwater-Flow Eqn.
 Solving:  Stress period:    49    Time step:    24    Groundwater-Flow Eqn.
 Solving:  Stress period:    49    Time step:    25    Groundwater-Flow Eqn.
 Solving:  Stress period:    49    Time step:    26    Groundwater-Flow Eqn.
 Solving:  Stress period:    49    Time step:    27    Groundwater-Flow Eqn.
 Solving:  Stress period:    49    Time step:    28    Groundwater-Flow Eqn.
 Solving:  Stress period:    49    Time step:    29    Groundwater-Flow Eqn.
 Solving:  Stress period:    49    Time step:    30    Groundwater-Flow Eqn.

 Run end date and time (yyyy/mm/dd hh:mm:ss): 2019/07/16 12:37:28
 Elapsed run time:  5.898 Seconds

Normal termination of simulation
