                                  MODFLOW-NWT      
      U.S. GEOLOGICAL SURVEY MODULAR FINITE-DIFFERENCE GROUNDWATER-FLOW MODEL
                            VERSION 1.0.2 10/03/2011
                    BASED ON MODFLOW-2005 VERSION 1.8.00 12/18/2009

 LIST FILE: .\Ex_prob2\Pr2MF2005.LST
                         UNIT    1

 OPENING .\Ex_prob2\Pr2.BA6
 FILE TYPE:BAS6   UNIT    2   STATUS:OLD    
 FORMAT:FORMATTED              ACCESS:SEQUENTIAL          

 OPENING .\Ex_prob2\Pr2.DIS
 FILE TYPE:DIS   UNIT   10   STATUS:OLD    
 FORMAT:FORMATTED              ACCESS:SEQUENTIAL          

 OPENING .\Ex_prob2\Pr2.RCH
 FILE TYPE:RCH   UNIT   18   STATUS:OLD    
 FORMAT:FORMATTED              ACCESS:SEQUENTIAL          

 OPENING .\Ex_prob2\Pr2.OC
 FILE TYPE:OC   UNIT   20   STATUS:OLD    
 FORMAT:FORMATTED              ACCESS:SEQUENTIAL          

 OPENING .\Ex_prob2\Pr2MF2005.BUD
 FILE TYPE:DATA(BINARY)   UNIT   32   STATUS:UNKNOWN
 FORMAT:BINARY                 ACCESS:SEQUENTIAL          

 OPENING .\Ex_prob2\Pr2.PCG
 FILE TYPE:PCG   UNIT   35   STATUS:OLD    
 FORMAT:FORMATTED              ACCESS:SEQUENTIAL          

 OPENING .\Ex_prob2\Pr2.LPF
 FILE TYPE:LPF   UNIT   34   STATUS:OLD    
 FORMAT:FORMATTED              ACCESS:SEQUENTIAL          

 BAS -- BASIC PACKAGE, VERSION 7, 5/2/2005 INPUT READ FROM UNIT    2

 DISCRETIZATION INPUT DATA READ FROM UNIT   10
   14 LAYERS        40 ROWS        40 COLUMNS
    3 STRESS PERIOD(S) IN SIMULATION
 MODEL TIME UNIT IS DAYS
 MODEL LENGTH UNIT IS UNDEFINED
  Confining bed flag for each layer:
   0   0   0   0   0   0   0   0   0   0   0   0   0   0

                     DELR =   125.000    

                     DELC =   125.000    

 TOP ELEVATION OF LAYER 1 =   80.0000    

   MODEL LAYER BOTTOM EL. =   65.0000     FOR LAYER   1

   MODEL LAYER BOTTOM EL. =   60.0000     FOR LAYER   2

   MODEL LAYER BOTTOM EL. =   55.0000     FOR LAYER   3

   MODEL LAYER BOTTOM EL. =   50.0000     FOR LAYER   4

   MODEL LAYER BOTTOM EL. =   45.0000     FOR LAYER   5

   MODEL LAYER BOTTOM EL. =   40.0000     FOR LAYER   6

   MODEL LAYER BOTTOM EL. =   35.0000     FOR LAYER   7

   MODEL LAYER BOTTOM EL. =   30.0000     FOR LAYER   8

   MODEL LAYER BOTTOM EL. =   25.0000     FOR LAYER   9

   MODEL LAYER BOTTOM EL. =   20.0000     FOR LAYER  10

   MODEL LAYER BOTTOM EL. =   15.0000     FOR LAYER  11

   MODEL LAYER BOTTOM EL. =   10.0000     FOR LAYER  12

   MODEL LAYER BOTTOM EL. =   5.00000     FOR LAYER  13

   MODEL LAYER BOTTOM EL. =   0.00000     FOR LAYER  14


 STRESS PERIOD     LENGTH       TIME STEPS     MULTIPLIER FOR DELT    SS FLAG
 ----------------------------------------------------------------------------
        1         190.0000         10                    1.000         TR
        2         518.0000          2                    1.000         TR
        3         1922.000         17                    1.000         TR

 TRANSIENT SIMULATION



 
 #BCF2 sample problem 2                                                          
 #Mounding under a recharge pond                                                 
 THE FREE FORMAT OPTION HAS BEEN SELECTED

           BOUNDARY ARRAY =              1 FOR LAYER   1

           BOUNDARY ARRAY =              1 FOR LAYER   2

           BOUNDARY ARRAY =              1 FOR LAYER   3

           BOUNDARY ARRAY =              1 FOR LAYER   4

           BOUNDARY ARRAY =              1 FOR LAYER   5

           BOUNDARY ARRAY =              1 FOR LAYER   6

           BOUNDARY ARRAY =              1 FOR LAYER   7

           BOUNDARY ARRAY =              1 FOR LAYER   8

           BOUNDARY ARRAY =              1 FOR LAYER   9



                     BOUNDARY ARRAY FOR LAYER  10
 READING ON UNIT    2 WITH FORMAT: (20I4)              

       1  2  3  4  5  6  7  8  9 10 11 12 13 14 15 16 17 18 19 20 21 22 23 24 25 26 27 28 29 30 31 32 33 34 35 36 37 38 39 40
 ............................................................................................................................
   1   1  1  1  1  1  1  1  1  1  1  1  1  1  1  1  1  1  1  1  1  1  1  1  1  1  1  1  1  1  1  1  1  1  1  1  1  1  1  1 -1
   2   1  1  1  1  1  1  1  1  1  1  1  1  1  1  1  1  1  1  1  1  1  1  1  1  1  1  1  1  1  1  1  1  1  1  1  1  1  1  1 -1
   3   1  1  1  1  1  1  1  1  1  1  1  1  1  1  1  1  1  1  1  1  1  1  1  1  1  1  1  1  1  1  1  1  1  1  1  1  1  1  1 -1
   4   1  1  1  1  1  1  1  1  1  1  1  1  1  1  1  1  1  1  1  1  1  1  1  1  1  1  1  1  1  1  1  1  1  1  1  1  1  1  1 -1
   5   1  1  1  1  1  1  1  1  1  1  1  1  1  1  1  1  1  1  1  1  1  1  1  1  1  1  1  1  1  1  1  1  1  1  1  1  1  1  1 -1
   6   1  1  1  1  1  1  1  1  1  1  1  1  1  1  1  1  1  1  1  1  1  1  1  1  1  1  1  1  1  1  1  1  1  1  1  1  1  1  1 -1
   7   1  1  1  1  1  1  1  1  1  1  1  1  1  1  1  1  1  1  1  1  1  1  1  1  1  1  1  1  1  1  1  1  1  1  1  1  1  1  1 -1
   8   1  1  1  1  1  1  1  1  1  1  1  1  1  1  1  1  1  1  1  1  1  1  1  1  1  1  1  1  1  1  1  1  1  1  1  1  1  1  1 -1
   9   1  1  1  1  1  1  1  1  1  1  1  1  1  1  1  1  1  1  1  1  1  1  1  1  1  1  1  1  1  1  1  1  1  1  1  1  1  1  1 -1
  10   1  1  1  1  1  1  1  1  1  1  1  1  1  1  1  1  1  1  1  1  1  1  1  1  1  1  1  1  1  1  1  1  1  1  1  1  1  1  1 -1
  11   1  1  1  1  1  1  1  1  1  1  1  1  1  1  1  1  1  1  1  1  1  1  1  1  1  1  1  1  1  1  1  1  1  1  1  1  1  1  1 -1
  12   1  1  1  1  1  1  1  1  1  1  1  1  1  1  1  1  1  1  1  1  1  1  1  1  1  1  1  1  1  1  1  1  1  1  1  1  1  1  1 -1
  13   1  1  1  1  1  1  1  1  1  1  1  1  1  1  1  1  1  1  1  1  1  1  1  1  1  1  1  1  1  1  1  1  1  1  1  1  1  1  1 -1
  14   1  1  1  1  1  1  1  1  1  1  1  1  1  1  1  1  1  1  1  1  1  1  1  1  1  1  1  1  1  1  1  1  1  1  1  1  1  1  1 -1
  15   1  1  1  1  1  1  1  1  1  1  1  1  1  1  1  1  1  1  1  1  1  1  1  1  1  1  1  1  1  1  1  1  1  1  1  1  1  1  1 -1
  16   1  1  1  1  1  1  1  1  1  1  1  1  1  1  1  1  1  1  1  1  1  1  1  1  1  1  1  1  1  1  1  1  1  1  1  1  1  1  1 -1
  17   1  1  1  1  1  1  1  1  1  1  1  1  1  1  1  1  1  1  1  1  1  1  1  1  1  1  1  1  1  1  1  1  1  1  1  1  1  1  1 -1
  18   1  1  1  1  1  1  1  1  1  1  1  1  1  1  1  1  1  1  1  1  1  1  1  1  1  1  1  1  1  1  1  1  1  1  1  1  1  1  1 -1
  19   1  1  1  1  1  1  1  1  1  1  1  1  1  1  1  1  1  1  1  1  1  1  1  1  1  1  1  1  1  1  1  1  1  1  1  1  1  1  1 -1
  20   1  1  1  1  1  1  1  1  1  1  1  1  1  1  1  1  1  1  1  1  1  1  1  1  1  1  1  1  1  1  1  1  1  1  1  1  1  1  1 -1
  21   1  1  1  1  1  1  1  1  1  1  1  1  1  1  1  1  1  1  1  1  1  1  1  1  1  1  1  1  1  1  1  1  1  1  1  1  1  1  1 -1
  22   1  1  1  1  1  1  1  1  1  1  1  1  1  1  1  1  1  1  1  1  1  1  1  1  1  1  1  1  1  1  1  1  1  1  1  1  1  1  1 -1
  23   1  1  1  1  1  1  1  1  1  1  1  1  1  1  1  1  1  1  1  1  1  1  1  1  1  1  1  1  1  1  1  1  1  1  1  1  1  1  1 -1
  24   1  1  1  1  1  1  1  1  1  1  1  1  1  1  1  1  1  1  1  1  1  1  1  1  1  1  1  1  1  1  1  1  1  1  1  1  1  1  1 -1
  25   1  1  1  1  1  1  1  1  1  1  1  1  1  1  1  1  1  1  1  1  1  1  1  1  1  1  1  1  1  1  1  1  1  1  1  1  1  1  1 -1
  26   1  1  1  1  1  1  1  1  1  1  1  1  1  1  1  1  1  1  1  1  1  1  1  1  1  1  1  1  1  1  1  1  1  1  1  1  1  1  1 -1
  27   1  1  1  1  1  1  1  1  1  1  1  1  1  1  1  1  1  1  1  1  1  1  1  1  1  1  1  1  1  1  1  1  1  1  1  1  1  1  1 -1
  28   1  1  1  1  1  1  1  1  1  1  1  1  1  1  1  1  1  1  1  1  1  1  1  1  1  1  1  1  1  1  1  1  1  1  1  1  1  1  1 -1
  29   1  1  1  1  1  1  1  1  1  1  1  1  1  1  1  1  1  1  1  1  1  1  1  1  1  1  1  1  1  1  1  1  1  1  1  1  1  1  1 -1
  30   1  1  1  1  1  1  1  1  1  1  1  1  1  1  1  1  1  1  1  1  1  1  1  1  1  1  1  1  1  1  1  1  1  1  1  1  1  1  1 -1
  31   1  1  1  1  1  1  1  1  1  1  1  1  1  1  1  1  1  1  1  1  1  1  1  1  1  1  1  1  1  1  1  1  1  1  1  1  1  1  1 -1
  32   1  1  1  1  1  1  1  1  1  1  1  1  1  1  1  1  1  1  1  1  1  1  1  1  1  1  1  1  1  1  1  1  1  1  1  1  1  1  1 -1
  33   1  1  1  1  1  1  1  1  1  1  1  1  1  1  1  1  1  1  1  1  1  1  1  1  1  1  1  1  1  1  1  1  1  1  1  1  1  1  1 -1
  34   1  1  1  1  1  1  1  1  1  1  1  1  1  1  1  1  1  1  1  1  1  1  1  1  1  1  1  1  1  1  1  1  1  1  1  1  1  1  1 -1
  35   1  1  1  1  1  1  1  1  1  1  1  1  1  1  1  1  1  1  1  1  1  1  1  1  1  1  1  1  1  1  1  1  1  1  1  1  1  1  1 -1
  36   1  1  1  1  1  1  1  1  1  1  1  1  1  1  1  1  1  1  1  1  1  1  1  1  1  1  1  1  1  1  1  1  1  1  1  1  1  1  1 -1
  37   1  1  1  1  1  1  1  1  1  1  1  1  1  1  1  1  1  1  1  1  1  1  1  1  1  1  1  1  1  1  1  1  1  1  1  1  1  1  1 -1
  38   1  1  1  1  1  1  1  1  1  1  1  1  1  1  1  1  1  1  1  1  1  1  1  1  1  1  1  1  1  1  1  1  1  1  1  1  1  1  1 -1
  39   1  1  1  1  1  1  1  1  1  1  1  1  1  1  1  1  1  1  1  1  1  1  1  1  1  1  1  1  1  1  1  1  1  1  1  1  1  1  1 -1
  40  -1 -1 -1 -1 -1 -1 -1 -1 -1 -1 -1 -1 -1 -1 -1 -1 -1 -1 -1 -1 -1 -1 -1 -1 -1 -1 -1 -1 -1 -1 -1 -1 -1 -1 -1 -1 -1 -1 -1 -1



                     BOUNDARY ARRAY FOR LAYER  11
 READING ON UNIT    2 WITH FORMAT: (20I4)              

       1  2  3  4  5  6  7  8  9 10 11 12 13 14 15 16 17 18 19 20 21 22 23 24 25 26 27 28 29 30 31 32 33 34 35 36 37 38 39 40
 ............................................................................................................................
   1   1  1  1  1  1  1  1  1  1  1  1  1  1  1  1  1  1  1  1  1  1  1  1  1  1  1  1  1  1  1  1  1  1  1  1  1  1  1  1 -1
   2   1  1  1  1  1  1  1  1  1  1  1  1  1  1  1  1  1  1  1  1  1  1  1  1  1  1  1  1  1  1  1  1  1  1  1  1  1  1  1 -1
   3   1  1  1  1  1  1  1  1  1  1  1  1  1  1  1  1  1  1  1  1  1  1  1  1  1  1  1  1  1  1  1  1  1  1  1  1  1  1  1 -1
   4   1  1  1  1  1  1  1  1  1  1  1  1  1  1  1  1  1  1  1  1  1  1  1  1  1  1  1  1  1  1  1  1  1  1  1  1  1  1  1 -1
   5   1  1  1  1  1  1  1  1  1  1  1  1  1  1  1  1  1  1  1  1  1  1  1  1  1  1  1  1  1  1  1  1  1  1  1  1  1  1  1 -1
   6   1  1  1  1  1  1  1  1  1  1  1  1  1  1  1  1  1  1  1  1  1  1  1  1  1  1  1  1  1  1  1  1  1  1  1  1  1  1  1 -1
   7   1  1  1  1  1  1  1  1  1  1  1  1  1  1  1  1  1  1  1  1  1  1  1  1  1  1  1  1  1  1  1  1  1  1  1  1  1  1  1 -1
   8   1  1  1  1  1  1  1  1  1  1  1  1  1  1  1  1  1  1  1  1  1  1  1  1  1  1  1  1  1  1  1  1  1  1  1  1  1  1  1 -1
   9   1  1  1  1  1  1  1  1  1  1  1  1  1  1  1  1  1  1  1  1  1  1  1  1  1  1  1  1  1  1  1  1  1  1  1  1  1  1  1 -1
  10   1  1  1  1  1  1  1  1  1  1  1  1  1  1  1  1  1  1  1  1  1  1  1  1  1  1  1  1  1  1  1  1  1  1  1  1  1  1  1 -1
  11   1  1  1  1  1  1  1  1  1  1  1  1  1  1  1  1  1  1  1  1  1  1  1  1  1  1  1  1  1  1  1  1  1  1  1  1  1  1  1 -1
  12   1  1  1  1  1  1  1  1  1  1  1  1  1  1  1  1  1  1  1  1  1  1  1  1  1  1  1  1  1  1  1  1  1  1  1  1  1  1  1 -1
  13   1  1  1  1  1  1  1  1  1  1  1  1  1  1  1  1  1  1  1  1  1  1  1  1  1  1  1  1  1  1  1  1  1  1  1  1  1  1  1 -1
  14   1  1  1  1  1  1  1  1  1  1  1  1  1  1  1  1  1  1  1  1  1  1  1  1  1  1  1  1  1  1  1  1  1  1  1  1  1  1  1 -1
  15   1  1  1  1  1  1  1  1  1  1  1  1  1  1  1  1  1  1  1  1  1  1  1  1  1  1  1  1  1  1  1  1  1  1  1  1  1  1  1 -1
  16   1  1  1  1  1  1  1  1  1  1  1  1  1  1  1  1  1  1  1  1  1  1  1  1  1  1  1  1  1  1  1  1  1  1  1  1  1  1  1 -1
  17   1  1  1  1  1  1  1  1  1  1  1  1  1  1  1  1  1  1  1  1  1  1  1  1  1  1  1  1  1  1  1  1  1  1  1  1  1  1  1 -1
  18   1  1  1  1  1  1  1  1  1  1  1  1  1  1  1  1  1  1  1  1  1  1  1  1  1  1  1  1  1  1  1  1  1  1  1  1  1  1  1 -1
  19   1  1  1  1  1  1  1  1  1  1  1  1  1  1  1  1  1  1  1  1  1  1  1  1  1  1  1  1  1  1  1  1  1  1  1  1  1  1  1 -1
  20   1  1  1  1  1  1  1  1  1  1  1  1  1  1  1  1  1  1  1  1  1  1  1  1  1  1  1  1  1  1  1  1  1  1  1  1  1  1  1 -1
  21   1  1  1  1  1  1  1  1  1  1  1  1  1  1  1  1  1  1  1  1  1  1  1  1  1  1  1  1  1  1  1  1  1  1  1  1  1  1  1 -1
  22   1  1  1  1  1  1  1  1  1  1  1  1  1  1  1  1  1  1  1  1  1  1  1  1  1  1  1  1  1  1  1  1  1  1  1  1  1  1  1 -1
  23   1  1  1  1  1  1  1  1  1  1  1  1  1  1  1  1  1  1  1  1  1  1  1  1  1  1  1  1  1  1  1  1  1  1  1  1  1  1  1 -1
  24   1  1  1  1  1  1  1  1  1  1  1  1  1  1  1  1  1  1  1  1  1  1  1  1  1  1  1  1  1  1  1  1  1  1  1  1  1  1  1 -1
  25   1  1  1  1  1  1  1  1  1  1  1  1  1  1  1  1  1  1  1  1  1  1  1  1  1  1  1  1  1  1  1  1  1  1  1  1  1  1  1 -1
  26   1  1  1  1  1  1  1  1  1  1  1  1  1  1  1  1  1  1  1  1  1  1  1  1  1  1  1  1  1  1  1  1  1  1  1  1  1  1  1 -1
  27   1  1  1  1  1  1  1  1  1  1  1  1  1  1  1  1  1  1  1  1  1  1  1  1  1  1  1  1  1  1  1  1  1  1  1  1  1  1  1 -1
  28   1  1  1  1  1  1  1  1  1  1  1  1  1  1  1  1  1  1  1  1  1  1  1  1  1  1  1  1  1  1  1  1  1  1  1  1  1  1  1 -1
  29   1  1  1  1  1  1  1  1  1  1  1  1  1  1  1  1  1  1  1  1  1  1  1  1  1  1  1  1  1  1  1  1  1  1  1  1  1  1  1 -1
  30   1  1  1  1  1  1  1  1  1  1  1  1  1  1  1  1  1  1  1  1  1  1  1  1  1  1  1  1  1  1  1  1  1  1  1  1  1  1  1 -1
  31   1  1  1  1  1  1  1  1  1  1  1  1  1  1  1  1  1  1  1  1  1  1  1  1  1  1  1  1  1  1  1  1  1  1  1  1  1  1  1 -1
  32   1  1  1  1  1  1  1  1  1  1  1  1  1  1  1  1  1  1  1  1  1  1  1  1  1  1  1  1  1  1  1  1  1  1  1  1  1  1  1 -1
  33   1  1  1  1  1  1  1  1  1  1  1  1  1  1  1  1  1  1  1  1  1  1  1  1  1  1  1  1  1  1  1  1  1  1  1  1  1  1  1 -1
  34   1  1  1  1  1  1  1  1  1  1  1  1  1  1  1  1  1  1  1  1  1  1  1  1  1  1  1  1  1  1  1  1  1  1  1  1  1  1  1 -1
  35   1  1  1  1  1  1  1  1  1  1  1  1  1  1  1  1  1  1  1  1  1  1  1  1  1  1  1  1  1  1  1  1  1  1  1  1  1  1  1 -1
  36   1  1  1  1  1  1  1  1  1  1  1  1  1  1  1  1  1  1  1  1  1  1  1  1  1  1  1  1  1  1  1  1  1  1  1  1  1  1  1 -1
  37   1  1  1  1  1  1  1  1  1  1  1  1  1  1  1  1  1  1  1  1  1  1  1  1  1  1  1  1  1  1  1  1  1  1  1  1  1  1  1 -1
  38   1  1  1  1  1  1  1  1  1  1  1  1  1  1  1  1  1  1  1  1  1  1  1  1  1  1  1  1  1  1  1  1  1  1  1  1  1  1  1 -1
  39   1  1  1  1  1  1  1  1  1  1  1  1  1  1  1  1  1  1  1  1  1  1  1  1  1  1  1  1  1  1  1  1  1  1  1  1  1  1  1 -1
  40  -1 -1 -1 -1 -1 -1 -1 -1 -1 -1 -1 -1 -1 -1 -1 -1 -1 -1 -1 -1 -1 -1 -1 -1 -1 -1 -1 -1 -1 -1 -1 -1 -1 -1 -1 -1 -1 -1 -1 -1



                     BOUNDARY ARRAY FOR LAYER  12
 READING ON UNIT    2 WITH FORMAT: (20I4)              

       1  2  3  4  5  6  7  8  9 10 11 12 13 14 15 16 17 18 19 20 21 22 23 24 25 26 27 28 29 30 31 32 33 34 35 36 37 38 39 40
 ............................................................................................................................
   1   1  1  1  1  1  1  1  1  1  1  1  1  1  1  1  1  1  1  1  1  1  1  1  1  1  1  1  1  1  1  1  1  1  1  1  1  1  1  1 -1
   2   1  1  1  1  1  1  1  1  1  1  1  1  1  1  1  1  1  1  1  1  1  1  1  1  1  1  1  1  1  1  1  1  1  1  1  1  1  1  1 -1
   3   1  1  1  1  1  1  1  1  1  1  1  1  1  1  1  1  1  1  1  1  1  1  1  1  1  1  1  1  1  1  1  1  1  1  1  1  1  1  1 -1
   4   1  1  1  1  1  1  1  1  1  1  1  1  1  1  1  1  1  1  1  1  1  1  1  1  1  1  1  1  1  1  1  1  1  1  1  1  1  1  1 -1
   5   1  1  1  1  1  1  1  1  1  1  1  1  1  1  1  1  1  1  1  1  1  1  1  1  1  1  1  1  1  1  1  1  1  1  1  1  1  1  1 -1
   6   1  1  1  1  1  1  1  1  1  1  1  1  1  1  1  1  1  1  1  1  1  1  1  1  1  1  1  1  1  1  1  1  1  1  1  1  1  1  1 -1
   7   1  1  1  1  1  1  1  1  1  1  1  1  1  1  1  1  1  1  1  1  1  1  1  1  1  1  1  1  1  1  1  1  1  1  1  1  1  1  1 -1
   8   1  1  1  1  1  1  1  1  1  1  1  1  1  1  1  1  1  1  1  1  1  1  1  1  1  1  1  1  1  1  1  1  1  1  1  1  1  1  1 -1
   9   1  1  1  1  1  1  1  1  1  1  1  1  1  1  1  1  1  1  1  1  1  1  1  1  1  1  1  1  1  1  1  1  1  1  1  1  1  1  1 -1
  10   1  1  1  1  1  1  1  1  1  1  1  1  1  1  1  1  1  1  1  1  1  1  1  1  1  1  1  1  1  1  1  1  1  1  1  1  1  1  1 -1
  11   1  1  1  1  1  1  1  1  1  1  1  1  1  1  1  1  1  1  1  1  1  1  1  1  1  1  1  1  1  1  1  1  1  1  1  1  1  1  1 -1
  12   1  1  1  1  1  1  1  1  1  1  1  1  1  1  1  1  1  1  1  1  1  1  1  1  1  1  1  1  1  1  1  1  1  1  1  1  1  1  1 -1
  13   1  1  1  1  1  1  1  1  1  1  1  1  1  1  1  1  1  1  1  1  1  1  1  1  1  1  1  1  1  1  1  1  1  1  1  1  1  1  1 -1
  14   1  1  1  1  1  1  1  1  1  1  1  1  1  1  1  1  1  1  1  1  1  1  1  1  1  1  1  1  1  1  1  1  1  1  1  1  1  1  1 -1
  15   1  1  1  1  1  1  1  1  1  1  1  1  1  1  1  1  1  1  1  1  1  1  1  1  1  1  1  1  1  1  1  1  1  1  1  1  1  1  1 -1
  16   1  1  1  1  1  1  1  1  1  1  1  1  1  1  1  1  1  1  1  1  1  1  1  1  1  1  1  1  1  1  1  1  1  1  1  1  1  1  1 -1
  17   1  1  1  1  1  1  1  1  1  1  1  1  1  1  1  1  1  1  1  1  1  1  1  1  1  1  1  1  1  1  1  1  1  1  1  1  1  1  1 -1
  18   1  1  1  1  1  1  1  1  1  1  1  1  1  1  1  1  1  1  1  1  1  1  1  1  1  1  1  1  1  1  1  1  1  1  1  1  1  1  1 -1
  19   1  1  1  1  1  1  1  1  1  1  1  1  1  1  1  1  1  1  1  1  1  1  1  1  1  1  1  1  1  1  1  1  1  1  1  1  1  1  1 -1
  20   1  1  1  1  1  1  1  1  1  1  1  1  1  1  1  1  1  1  1  1  1  1  1  1  1  1  1  1  1  1  1  1  1  1  1  1  1  1  1 -1
  21   1  1  1  1  1  1  1  1  1  1  1  1  1  1  1  1  1  1  1  1  1  1  1  1  1  1  1  1  1  1  1  1  1  1  1  1  1  1  1 -1
  22   1  1  1  1  1  1  1  1  1  1  1  1  1  1  1  1  1  1  1  1  1  1  1  1  1  1  1  1  1  1  1  1  1  1  1  1  1  1  1 -1
  23   1  1  1  1  1  1  1  1  1  1  1  1  1  1  1  1  1  1  1  1  1  1  1  1  1  1  1  1  1  1  1  1  1  1  1  1  1  1  1 -1
  24   1  1  1  1  1  1  1  1  1  1  1  1  1  1  1  1  1  1  1  1  1  1  1  1  1  1  1  1  1  1  1  1  1  1  1  1  1  1  1 -1
  25   1  1  1  1  1  1  1  1  1  1  1  1  1  1  1  1  1  1  1  1  1  1  1  1  1  1  1  1  1  1  1  1  1  1  1  1  1  1  1 -1
  26   1  1  1  1  1  1  1  1  1  1  1  1  1  1  1  1  1  1  1  1  1  1  1  1  1  1  1  1  1  1  1  1  1  1  1  1  1  1  1 -1
  27   1  1  1  1  1  1  1  1  1  1  1  1  1  1  1  1  1  1  1  1  1  1  1  1  1  1  1  1  1  1  1  1  1  1  1  1  1  1  1 -1
  28   1  1  1  1  1  1  1  1  1  1  1  1  1  1  1  1  1  1  1  1  1  1  1  1  1  1  1  1  1  1  1  1  1  1  1  1  1  1  1 -1
  29   1  1  1  1  1  1  1  1  1  1  1  1  1  1  1  1  1  1  1  1  1  1  1  1  1  1  1  1  1  1  1  1  1  1  1  1  1  1  1 -1
  30   1  1  1  1  1  1  1  1  1  1  1  1  1  1  1  1  1  1  1  1  1  1  1  1  1  1  1  1  1  1  1  1  1  1  1  1  1  1  1 -1
  31   1  1  1  1  1  1  1  1  1  1  1  1  1  1  1  1  1  1  1  1  1  1  1  1  1  1  1  1  1  1  1  1  1  1  1  1  1  1  1 -1
  32   1  1  1  1  1  1  1  1  1  1  1  1  1  1  1  1  1  1  1  1  1  1  1  1  1  1  1  1  1  1  1  1  1  1  1  1  1  1  1 -1
  33   1  1  1  1  1  1  1  1  1  1  1  1  1  1  1  1  1  1  1  1  1  1  1  1  1  1  1  1  1  1  1  1  1  1  1  1  1  1  1 -1
  34   1  1  1  1  1  1  1  1  1  1  1  1  1  1  1  1  1  1  1  1  1  1  1  1  1  1  1  1  1  1  1  1  1  1  1  1  1  1  1 -1
  35   1  1  1  1  1  1  1  1  1  1  1  1  1  1  1  1  1  1  1  1  1  1  1  1  1  1  1  1  1  1  1  1  1  1  1  1  1  1  1 -1
  36   1  1  1  1  1  1  1  1  1  1  1  1  1  1  1  1  1  1  1  1  1  1  1  1  1  1  1  1  1  1  1  1  1  1  1  1  1  1  1 -1
  37   1  1  1  1  1  1  1  1  1  1  1  1  1  1  1  1  1  1  1  1  1  1  1  1  1  1  1  1  1  1  1  1  1  1  1  1  1  1  1 -1
  38   1  1  1  1  1  1  1  1  1  1  1  1  1  1  1  1  1  1  1  1  1  1  1  1  1  1  1  1  1  1  1  1  1  1  1  1  1  1  1 -1
  39   1  1  1  1  1  1  1  1  1  1  1  1  1  1  1  1  1  1  1  1  1  1  1  1  1  1  1  1  1  1  1  1  1  1  1  1  1  1  1 -1
  40  -1 -1 -1 -1 -1 -1 -1 -1 -1 -1 -1 -1 -1 -1 -1 -1 -1 -1 -1 -1 -1 -1 -1 -1 -1 -1 -1 -1 -1 -1 -1 -1 -1 -1 -1 -1 -1 -1 -1 -1



                     BOUNDARY ARRAY FOR LAYER  13
 READING ON UNIT    2 WITH FORMAT: (20I4)              

       1  2  3  4  5  6  7  8  9 10 11 12 13 14 15 16 17 18 19 20 21 22 23 24 25 26 27 28 29 30 31 32 33 34 35 36 37 38 39 40
 ............................................................................................................................
   1   1  1  1  1  1  1  1  1  1  1  1  1  1  1  1  1  1  1  1  1  1  1  1  1  1  1  1  1  1  1  1  1  1  1  1  1  1  1  1 -1
   2   1  1  1  1  1  1  1  1  1  1  1  1  1  1  1  1  1  1  1  1  1  1  1  1  1  1  1  1  1  1  1  1  1  1  1  1  1  1  1 -1
   3   1  1  1  1  1  1  1  1  1  1  1  1  1  1  1  1  1  1  1  1  1  1  1  1  1  1  1  1  1  1  1  1  1  1  1  1  1  1  1 -1
   4   1  1  1  1  1  1  1  1  1  1  1  1  1  1  1  1  1  1  1  1  1  1  1  1  1  1  1  1  1  1  1  1  1  1  1  1  1  1  1 -1
   5   1  1  1  1  1  1  1  1  1  1  1  1  1  1  1  1  1  1  1  1  1  1  1  1  1  1  1  1  1  1  1  1  1  1  1  1  1  1  1 -1
   6   1  1  1  1  1  1  1  1  1  1  1  1  1  1  1  1  1  1  1  1  1  1  1  1  1  1  1  1  1  1  1  1  1  1  1  1  1  1  1 -1
   7   1  1  1  1  1  1  1  1  1  1  1  1  1  1  1  1  1  1  1  1  1  1  1  1  1  1  1  1  1  1  1  1  1  1  1  1  1  1  1 -1
   8   1  1  1  1  1  1  1  1  1  1  1  1  1  1  1  1  1  1  1  1  1  1  1  1  1  1  1  1  1  1  1  1  1  1  1  1  1  1  1 -1
   9   1  1  1  1  1  1  1  1  1  1  1  1  1  1  1  1  1  1  1  1  1  1  1  1  1  1  1  1  1  1  1  1  1  1  1  1  1  1  1 -1
  10   1  1  1  1  1  1  1  1  1  1  1  1  1  1  1  1  1  1  1  1  1  1  1  1  1  1  1  1  1  1  1  1  1  1  1  1  1  1  1 -1
  11   1  1  1  1  1  1  1  1  1  1  1  1  1  1  1  1  1  1  1  1  1  1  1  1  1  1  1  1  1  1  1  1  1  1  1  1  1  1  1 -1
  12   1  1  1  1  1  1  1  1  1  1  1  1  1  1  1  1  1  1  1  1  1  1  1  1  1  1  1  1  1  1  1  1  1  1  1  1  1  1  1 -1
  13   1  1  1  1  1  1  1  1  1  1  1  1  1  1  1  1  1  1  1  1  1  1  1  1  1  1  1  1  1  1  1  1  1  1  1  1  1  1  1 -1
  14   1  1  1  1  1  1  1  1  1  1  1  1  1  1  1  1  1  1  1  1  1  1  1  1  1  1  1  1  1  1  1  1  1  1  1  1  1  1  1 -1
  15   1  1  1  1  1  1  1  1  1  1  1  1  1  1  1  1  1  1  1  1  1  1  1  1  1  1  1  1  1  1  1  1  1  1  1  1  1  1  1 -1
  16   1  1  1  1  1  1  1  1  1  1  1  1  1  1  1  1  1  1  1  1  1  1  1  1  1  1  1  1  1  1  1  1  1  1  1  1  1  1  1 -1
  17   1  1  1  1  1  1  1  1  1  1  1  1  1  1  1  1  1  1  1  1  1  1  1  1  1  1  1  1  1  1  1  1  1  1  1  1  1  1  1 -1
  18   1  1  1  1  1  1  1  1  1  1  1  1  1  1  1  1  1  1  1  1  1  1  1  1  1  1  1  1  1  1  1  1  1  1  1  1  1  1  1 -1
  19   1  1  1  1  1  1  1  1  1  1  1  1  1  1  1  1  1  1  1  1  1  1  1  1  1  1  1  1  1  1  1  1  1  1  1  1  1  1  1 -1
  20   1  1  1  1  1  1  1  1  1  1  1  1  1  1  1  1  1  1  1  1  1  1  1  1  1  1  1  1  1  1  1  1  1  1  1  1  1  1  1 -1
  21   1  1  1  1  1  1  1  1  1  1  1  1  1  1  1  1  1  1  1  1  1  1  1  1  1  1  1  1  1  1  1  1  1  1  1  1  1  1  1 -1
  22   1  1  1  1  1  1  1  1  1  1  1  1  1  1  1  1  1  1  1  1  1  1  1  1  1  1  1  1  1  1  1  1  1  1  1  1  1  1  1 -1
  23   1  1  1  1  1  1  1  1  1  1  1  1  1  1  1  1  1  1  1  1  1  1  1  1  1  1  1  1  1  1  1  1  1  1  1  1  1  1  1 -1
  24   1  1  1  1  1  1  1  1  1  1  1  1  1  1  1  1  1  1  1  1  1  1  1  1  1  1  1  1  1  1  1  1  1  1  1  1  1  1  1 -1
  25   1  1  1  1  1  1  1  1  1  1  1  1  1  1  1  1  1  1  1  1  1  1  1  1  1  1  1  1  1  1  1  1  1  1  1  1  1  1  1 -1
  26   1  1  1  1  1  1  1  1  1  1  1  1  1  1  1  1  1  1  1  1  1  1  1  1  1  1  1  1  1  1  1  1  1  1  1  1  1  1  1 -1
  27   1  1  1  1  1  1  1  1  1  1  1  1  1  1  1  1  1  1  1  1  1  1  1  1  1  1  1  1  1  1  1  1  1  1  1  1  1  1  1 -1
  28   1  1  1  1  1  1  1  1  1  1  1  1  1  1  1  1  1  1  1  1  1  1  1  1  1  1  1  1  1  1  1  1  1  1  1  1  1  1  1 -1
  29   1  1  1  1  1  1  1  1  1  1  1  1  1  1  1  1  1  1  1  1  1  1  1  1  1  1  1  1  1  1  1  1  1  1  1  1  1  1  1 -1
  30   1  1  1  1  1  1  1  1  1  1  1  1  1  1  1  1  1  1  1  1  1  1  1  1  1  1  1  1  1  1  1  1  1  1  1  1  1  1  1 -1
  31   1  1  1  1  1  1  1  1  1  1  1  1  1  1  1  1  1  1  1  1  1  1  1  1  1  1  1  1  1  1  1  1  1  1  1  1  1  1  1 -1
  32   1  1  1  1  1  1  1  1  1  1  1  1  1  1  1  1  1  1  1  1  1  1  1  1  1  1  1  1  1  1  1  1  1  1  1  1  1  1  1 -1
  33   1  1  1  1  1  1  1  1  1  1  1  1  1  1  1  1  1  1  1  1  1  1  1  1  1  1  1  1  1  1  1  1  1  1  1  1  1  1  1 -1
  34   1  1  1  1  1  1  1  1  1  1  1  1  1  1  1  1  1  1  1  1  1  1  1  1  1  1  1  1  1  1  1  1  1  1  1  1  1  1  1 -1
  35   1  1  1  1  1  1  1  1  1  1  1  1  1  1  1  1  1  1  1  1  1  1  1  1  1  1  1  1  1  1  1  1  1  1  1  1  1  1  1 -1
  36   1  1  1  1  1  1  1  1  1  1  1  1  1  1  1  1  1  1  1  1  1  1  1  1  1  1  1  1  1  1  1  1  1  1  1  1  1  1  1 -1
  37   1  1  1  1  1  1  1  1  1  1  1  1  1  1  1  1  1  1  1  1  1  1  1  1  1  1  1  1  1  1  1  1  1  1  1  1  1  1  1 -1
  38   1  1  1  1  1  1  1  1  1  1  1  1  1  1  1  1  1  1  1  1  1  1  1  1  1  1  1  1  1  1  1  1  1  1  1  1  1  1  1 -1
  39   1  1  1  1  1  1  1  1  1  1  1  1  1  1  1  1  1  1  1  1  1  1  1  1  1  1  1  1  1  1  1  1  1  1  1  1  1  1  1 -1
  40  -1 -1 -1 -1 -1 -1 -1 -1 -1 -1 -1 -1 -1 -1 -1 -1 -1 -1 -1 -1 -1 -1 -1 -1 -1 -1 -1 -1 -1 -1 -1 -1 -1 -1 -1 -1 -1 -1 -1 -1



                     BOUNDARY ARRAY FOR LAYER  14
 READING ON UNIT    2 WITH FORMAT: (20I4)              

       1  2  3  4  5  6  7  8  9 10 11 12 13 14 15 16 17 18 19 20 21 22 23 24 25 26 27 28 29 30 31 32 33 34 35 36 37 38 39 40
 ............................................................................................................................
   1   1  1  1  1  1  1  1  1  1  1  1  1  1  1  1  1  1  1  1  1  1  1  1  1  1  1  1  1  1  1  1  1  1  1  1  1  1  1  1 -1
   2   1  1  1  1  1  1  1  1  1  1  1  1  1  1  1  1  1  1  1  1  1  1  1  1  1  1  1  1  1  1  1  1  1  1  1  1  1  1  1 -1
   3   1  1  1  1  1  1  1  1  1  1  1  1  1  1  1  1  1  1  1  1  1  1  1  1  1  1  1  1  1  1  1  1  1  1  1  1  1  1  1 -1
   4   1  1  1  1  1  1  1  1  1  1  1  1  1  1  1  1  1  1  1  1  1  1  1  1  1  1  1  1  1  1  1  1  1  1  1  1  1  1  1 -1
   5   1  1  1  1  1  1  1  1  1  1  1  1  1  1  1  1  1  1  1  1  1  1  1  1  1  1  1  1  1  1  1  1  1  1  1  1  1  1  1 -1
   6   1  1  1  1  1  1  1  1  1  1  1  1  1  1  1  1  1  1  1  1  1  1  1  1  1  1  1  1  1  1  1  1  1  1  1  1  1  1  1 -1
   7   1  1  1  1  1  1  1  1  1  1  1  1  1  1  1  1  1  1  1  1  1  1  1  1  1  1  1  1  1  1  1  1  1  1  1  1  1  1  1 -1
   8   1  1  1  1  1  1  1  1  1  1  1  1  1  1  1  1  1  1  1  1  1  1  1  1  1  1  1  1  1  1  1  1  1  1  1  1  1  1  1 -1
   9   1  1  1  1  1  1  1  1  1  1  1  1  1  1  1  1  1  1  1  1  1  1  1  1  1  1  1  1  1  1  1  1  1  1  1  1  1  1  1 -1
  10   1  1  1  1  1  1  1  1  1  1  1  1  1  1  1  1  1  1  1  1  1  1  1  1  1  1  1  1  1  1  1  1  1  1  1  1  1  1  1 -1
  11   1  1  1  1  1  1  1  1  1  1  1  1  1  1  1  1  1  1  1  1  1  1  1  1  1  1  1  1  1  1  1  1  1  1  1  1  1  1  1 -1
  12   1  1  1  1  1  1  1  1  1  1  1  1  1  1  1  1  1  1  1  1  1  1  1  1  1  1  1  1  1  1  1  1  1  1  1  1  1  1  1 -1
  13   1  1  1  1  1  1  1  1  1  1  1  1  1  1  1  1  1  1  1  1  1  1  1  1  1  1  1  1  1  1  1  1  1  1  1  1  1  1  1 -1
  14   1  1  1  1  1  1  1  1  1  1  1  1  1  1  1  1  1  1  1  1  1  1  1  1  1  1  1  1  1  1  1  1  1  1  1  1  1  1  1 -1
  15   1  1  1  1  1  1  1  1  1  1  1  1  1  1  1  1  1  1  1  1  1  1  1  1  1  1  1  1  1  1  1  1  1  1  1  1  1  1  1 -1
  16   1  1  1  1  1  1  1  1  1  1  1  1  1  1  1  1  1  1  1  1  1  1  1  1  1  1  1  1  1  1  1  1  1  1  1  1  1  1  1 -1
  17   1  1  1  1  1  1  1  1  1  1  1  1  1  1  1  1  1  1  1  1  1  1  1  1  1  1  1  1  1  1  1  1  1  1  1  1  1  1  1 -1
  18   1  1  1  1  1  1  1  1  1  1  1  1  1  1  1  1  1  1  1  1  1  1  1  1  1  1  1  1  1  1  1  1  1  1  1  1  1  1  1 -1
  19   1  1  1  1  1  1  1  1  1  1  1  1  1  1  1  1  1  1  1  1  1  1  1  1  1  1  1  1  1  1  1  1  1  1  1  1  1  1  1 -1
  20   1  1  1  1  1  1  1  1  1  1  1  1  1  1  1  1  1  1  1  1  1  1  1  1  1  1  1  1  1  1  1  1  1  1  1  1  1  1  1 -1
  21   1  1  1  1  1  1  1  1  1  1  1  1  1  1  1  1  1  1  1  1  1  1  1  1  1  1  1  1  1  1  1  1  1  1  1  1  1  1  1 -1
  22   1  1  1  1  1  1  1  1  1  1  1  1  1  1  1  1  1  1  1  1  1  1  1  1  1  1  1  1  1  1  1  1  1  1  1  1  1  1  1 -1
  23   1  1  1  1  1  1  1  1  1  1  1  1  1  1  1  1  1  1  1  1  1  1  1  1  1  1  1  1  1  1  1  1  1  1  1  1  1  1  1 -1
  24   1  1  1  1  1  1  1  1  1  1  1  1  1  1  1  1  1  1  1  1  1  1  1  1  1  1  1  1  1  1  1  1  1  1  1  1  1  1  1 -1
  25   1  1  1  1  1  1  1  1  1  1  1  1  1  1  1  1  1  1  1  1  1  1  1  1  1  1  1  1  1  1  1  1  1  1  1  1  1  1  1 -1
  26   1  1  1  1  1  1  1  1  1  1  1  1  1  1  1  1  1  1  1  1  1  1  1  1  1  1  1  1  1  1  1  1  1  1  1  1  1  1  1 -1
  27   1  1  1  1  1  1  1  1  1  1  1  1  1  1  1  1  1  1  1  1  1  1  1  1  1  1  1  1  1  1  1  1  1  1  1  1  1  1  1 -1
  28   1  1  1  1  1  1  1  1  1  1  1  1  1  1  1  1  1  1  1  1  1  1  1  1  1  1  1  1  1  1  1  1  1  1  1  1  1  1  1 -1
  29   1  1  1  1  1  1  1  1  1  1  1  1  1  1  1  1  1  1  1  1  1  1  1  1  1  1  1  1  1  1  1  1  1  1  1  1  1  1  1 -1
  30   1  1  1  1  1  1  1  1  1  1  1  1  1  1  1  1  1  1  1  1  1  1  1  1  1  1  1  1  1  1  1  1  1  1  1  1  1  1  1 -1
  31   1  1  1  1  1  1  1  1  1  1  1  1  1  1  1  1  1  1  1  1  1  1  1  1  1  1  1  1  1  1  1  1  1  1  1  1  1  1  1 -1
  32   1  1  1  1  1  1  1  1  1  1  1  1  1  1  1  1  1  1  1  1  1  1  1  1  1  1  1  1  1  1  1  1  1  1  1  1  1  1  1 -1
  33   1  1  1  1  1  1  1  1  1  1  1  1  1  1  1  1  1  1  1  1  1  1  1  1  1  1  1  1  1  1  1  1  1  1  1  1  1  1  1 -1
  34   1  1  1  1  1  1  1  1  1  1  1  1  1  1  1  1  1  1  1  1  1  1  1  1  1  1  1  1  1  1  1  1  1  1  1  1  1  1  1 -1
  35   1  1  1  1  1  1  1  1  1  1  1  1  1  1  1  1  1  1  1  1  1  1  1  1  1  1  1  1  1  1  1  1  1  1  1  1  1  1  1 -1
  36   1  1  1  1  1  1  1  1  1  1  1  1  1  1  1  1  1  1  1  1  1  1  1  1  1  1  1  1  1  1  1  1  1  1  1  1  1  1  1 -1
  37   1  1  1  1  1  1  1  1  1  1  1  1  1  1  1  1  1  1  1  1  1  1  1  1  1  1  1  1  1  1  1  1  1  1  1  1  1  1  1 -1
  38   1  1  1  1  1  1  1  1  1  1  1  1  1  1  1  1  1  1  1  1  1  1  1  1  1  1  1  1  1  1  1  1  1  1  1  1  1  1  1 -1
  39   1  1  1  1  1  1  1  1  1  1  1  1  1  1  1  1  1  1  1  1  1  1  1  1  1  1  1  1  1  1  1  1  1  1  1  1  1  1  1 -1
  40  -1 -1 -1 -1 -1 -1 -1 -1 -1 -1 -1 -1 -1 -1 -1 -1 -1 -1 -1 -1 -1 -1 -1 -1 -1 -1 -1 -1 -1 -1 -1 -1 -1 -1 -1 -1 -1 -1 -1 -1

 AQUIFER HEAD WILL BE SET TO  -99.900     AT ALL NO-FLOW NODES (IBOUND=0).

             INITIAL HEAD =   25.0000     FOR LAYER   1

             INITIAL HEAD =   25.0000     FOR LAYER   2

             INITIAL HEAD =   25.0000     FOR LAYER   3

             INITIAL HEAD =   25.0000     FOR LAYER   4

             INITIAL HEAD =   25.0000     FOR LAYER   5

             INITIAL HEAD =   25.0000     FOR LAYER   6

             INITIAL HEAD =   25.0000     FOR LAYER   7

             INITIAL HEAD =   25.0000     FOR LAYER   8

             INITIAL HEAD =   25.0000     FOR LAYER   9

             INITIAL HEAD =   25.0000     FOR LAYER  10

             INITIAL HEAD =   25.0000     FOR LAYER  11

             INITIAL HEAD =   25.0000     FOR LAYER  12

             INITIAL HEAD =   25.0000     FOR LAYER  13

             INITIAL HEAD =   25.0000     FOR LAYER  14

 OUTPUT CONTROL IS SPECIFIED ONLY AT TIME STEPS FOR WHICH OUTPUT IS DESIRED
 COMPACT CELL-BY-CELL BUDGET FILES WILL BE WRITTEN
 IBOUND WILL BE SAVED WITH FORMAT: (40I2)              
 HEAD PRINT FORMAT CODE IS  12    DRAWDOWN PRINT FORMAT CODE IS   9
 HEADS WILL BE SAVED ON UNIT   30    DRAWDOWNS WILL BE SAVED ON UNIT    0

 LPF -- LAYER-PROPERTY FLOW PACKAGE, VERSION 7, 5/2/2005
         INPUT READ FROM UNIT   34
 CELL-BY-CELL FLOWS WILL BE SAVED ON UNIT   32
 HEAD AT CELLS THAT CONVERT TO DRY=  -99.900    
 No named parameters
 CONSTANTCV OPTION:
 Constant vertical conductance for convertible layers

   LAYER FLAGS:
 LAYER       LAYTYP        LAYAVG         CHANI        LAYVKA        LAYWET
 ---------------------------------------------------------------------------
    1             1             0     1.000E+00             0            -1
    2             1             0     1.000E+00             0            -1
    3             1             0     1.000E+00             0            -1
    4             1             0     1.000E+00             0            -1
    5             1             0     1.000E+00             0            -1
    6             1             0     1.000E+00             0            -1
    7             1             0     1.000E+00             0            -1
    8             1             0     1.000E+00             0            -1
    9             1             0     1.000E+00             0            -1
   10             0             0     1.000E+00             0             0
   11             0             0     1.000E+00             0             0
   12             0             0     1.000E+00             0             0
   13             0             0     1.000E+00             0             0
   14             0             0     1.000E+00             0             0

   INTERPRETATION OF LAYER FLAGS:
                        INTERBLOCK     HORIZONTAL    DATA IN
         LAYER TYPE   TRANSMISSIVITY   ANISOTROPY   ARRAY VKA   WETTABILITY
 LAYER      (LAYTYP)      (LAYAVG)       (CHANI)      (LAYVKA)      (LAYWET)
 ---------------------------------------------------------------------------
    1   CONVERTIBLE      HARMONIC     1.000E+00    VERTICAL K      WETTABLE
    2   CONVERTIBLE      HARMONIC     1.000E+00    VERTICAL K      WETTABLE
    3   CONVERTIBLE      HARMONIC     1.000E+00    VERTICAL K      WETTABLE
    4   CONVERTIBLE      HARMONIC     1.000E+00    VERTICAL K      WETTABLE
    5   CONVERTIBLE      HARMONIC     1.000E+00    VERTICAL K      WETTABLE
    6   CONVERTIBLE      HARMONIC     1.000E+00    VERTICAL K      WETTABLE
    7   CONVERTIBLE      HARMONIC     1.000E+00    VERTICAL K      WETTABLE
    8   CONVERTIBLE      HARMONIC     1.000E+00    VERTICAL K      WETTABLE
    9   CONVERTIBLE      HARMONIC     1.000E+00    VERTICAL K      WETTABLE
   10      CONFINED      HARMONIC     1.000E+00    VERTICAL K  NON-WETTABLE
   11      CONFINED      HARMONIC     1.000E+00    VERTICAL K  NON-WETTABLE
   12      CONFINED      HARMONIC     1.000E+00    VERTICAL K  NON-WETTABLE
   13      CONFINED      HARMONIC     1.000E+00    VERTICAL K  NON-WETTABLE
   14      CONFINED      HARMONIC     1.000E+00    VERTICAL K  NON-WETTABLE

 WETTING CAPABILITY IS ACTIVE IN   9 LAYERS
  WETTING FACTOR=  0.5000000    
  WETTING ITERATION INTERVAL=           1
  IHDWET=           1

    HYD. COND. ALONG ROWS =   5.00000     FOR LAYER   1

      VERTICAL HYD. COND. =  0.250000     FOR LAYER   1

         SPECIFIC STORAGE =  2.000000E-04 FOR LAYER   1

           SPECIFIC YIELD =  0.200000     FOR LAYER   1

         WETDRY PARAMETER = -0.500000     FOR LAYER   1

    HYD. COND. ALONG ROWS =   5.00000     FOR LAYER   2

      VERTICAL HYD. COND. =  0.250000     FOR LAYER   2

         SPECIFIC STORAGE =  2.000000E-04 FOR LAYER   2

           SPECIFIC YIELD =  0.200000     FOR LAYER   2

         WETDRY PARAMETER = -0.500000     FOR LAYER   2

    HYD. COND. ALONG ROWS =   5.00000     FOR LAYER   3

      VERTICAL HYD. COND. =  0.250000     FOR LAYER   3

         SPECIFIC STORAGE =  2.000000E-04 FOR LAYER   3

           SPECIFIC YIELD =  0.200000     FOR LAYER   3

         WETDRY PARAMETER = -0.500000     FOR LAYER   3

    HYD. COND. ALONG ROWS =   5.00000     FOR LAYER   4

      VERTICAL HYD. COND. =  0.250000     FOR LAYER   4

         SPECIFIC STORAGE =  2.000000E-04 FOR LAYER   4

           SPECIFIC YIELD =  0.200000     FOR LAYER   4

         WETDRY PARAMETER = -0.500000     FOR LAYER   4

    HYD. COND. ALONG ROWS =   5.00000     FOR LAYER   5

      VERTICAL HYD. COND. =  0.250000     FOR LAYER   5

         SPECIFIC STORAGE =  2.000000E-04 FOR LAYER   5

           SPECIFIC YIELD =  0.200000     FOR LAYER   5

         WETDRY PARAMETER = -0.500000     FOR LAYER   5

    HYD. COND. ALONG ROWS =   5.00000     FOR LAYER   6

      VERTICAL HYD. COND. =  0.250000     FOR LAYER   6

         SPECIFIC STORAGE =  2.000000E-04 FOR LAYER   6

           SPECIFIC YIELD =  0.200000     FOR LAYER   6

         WETDRY PARAMETER = -0.500000     FOR LAYER   6

    HYD. COND. ALONG ROWS =   5.00000     FOR LAYER   7

      VERTICAL HYD. COND. =  0.250000     FOR LAYER   7

         SPECIFIC STORAGE =  2.000000E-04 FOR LAYER   7

           SPECIFIC YIELD =  0.200000     FOR LAYER   7

         WETDRY PARAMETER = -0.500000     FOR LAYER   7

    HYD. COND. ALONG ROWS =   5.00000     FOR LAYER   8

      VERTICAL HYD. COND. =  0.250000     FOR LAYER   8

         SPECIFIC STORAGE =  2.000000E-04 FOR LAYER   8

           SPECIFIC YIELD =  0.200000     FOR LAYER   8

         WETDRY PARAMETER = -0.500000     FOR LAYER   8

    HYD. COND. ALONG ROWS =   5.00000     FOR LAYER   9

      VERTICAL HYD. COND. =  0.250000     FOR LAYER   9

         SPECIFIC STORAGE =  2.000000E-04 FOR LAYER   9

           SPECIFIC YIELD =  0.200000     FOR LAYER   9

         WETDRY PARAMETER = -0.500000     FOR LAYER   9

    HYD. COND. ALONG ROWS =   5.00000     FOR LAYER  10

      VERTICAL HYD. COND. =  0.250000     FOR LAYER  10

         SPECIFIC STORAGE =  2.000000E-04 FOR LAYER  10

    HYD. COND. ALONG ROWS =   5.00000     FOR LAYER  11

      VERTICAL HYD. COND. =  0.250000     FOR LAYER  11

         SPECIFIC STORAGE =  2.000000E-04 FOR LAYER  11

    HYD. COND. ALONG ROWS =   5.00000     FOR LAYER  12

      VERTICAL HYD. COND. =  0.250000     FOR LAYER  12

         SPECIFIC STORAGE =  2.000000E-04 FOR LAYER  12

    HYD. COND. ALONG ROWS =   5.00000     FOR LAYER  13

      VERTICAL HYD. COND. =  0.250000     FOR LAYER  13

         SPECIFIC STORAGE =  2.000000E-04 FOR LAYER  13

    HYD. COND. ALONG ROWS =   5.00000     FOR LAYER  14

      VERTICAL HYD. COND. =  0.250000     FOR LAYER  14

         SPECIFIC STORAGE =  2.000000E-04 FOR LAYER  14

 RCH -- RECHARGE PACKAGE, VERSION 7, 5/2/2005 INPUT READ FROM UNIT   18
 No named parameters
 OPTION 3 -- RECHARGE TO HIGHEST ACTIVE NODE IN EACH VERTICAL COLUMN
 CELL-BY-CELL FLOWS WILL BE SAVED ON UNIT   32


     0 Recharge parameters

 PCG -- CONJUGATE-GRADIENT SOLUTION PACKAGE, VERSION 7, 5/2/2005
 MAXIMUM OF     40 CALLS OF SOLUTION ROUTINE
 MAXIMUM OF     20 INTERNAL ITERATIONS PER CALL TO SOLUTION ROUTINE
 MATRIX PRECONDITIONING TYPE :    1



                                    SOLUTION BY THE CONJUGATE-GRADIENT METHOD
                                   -------------------------------------------
                    MAXIMUM NUMBER OF CALLS TO PCG ROUTINE =       40
                        MAXIMUM ITERATIONS PER CALL TO PCG =       20
                               MATRIX PRECONDITIONING TYPE =        1
        RELAXATION FACTOR (ONLY USED WITH PRECOND. TYPE 1) =    0.10000E+01
 PARAMETER OF POLYNOMIAL PRECOND. = 2 (2) OR IS CALCULATED :        2
                         HEAD CHANGE CRITERION FOR CLOSURE =    0.10000E-03
                     RESIDUAL CHANGE CRITERION FOR CLOSURE =    0.10000E+04
            PCG HEAD AND RESIDUAL CHANGE PRINTOUT INTERVAL =        1
     PRINTING FROM SOLVER IS LIMITED(1) OR SUPPRESSED (>1) =        0
                            STEADY-STATE DAMPING PARAMETER =    0.10000E+01
                               TRANSIENT DAMPING PARAMETER =    0.10000E+01
1
                            STRESS PERIOD NO.    1, LENGTH =   190.0000    
                            -----------------------------------------------

                              NUMBER OF TIME STEPS =    10

                               MULTIPLIER FOR DELT =     1.000

                            INITIAL TIME STEP SIZE =   19.00000    



                           RECHARGE
 READING ON UNIT   18 WITH FORMAT: (10F10.0)           

         1     2     3     4     5     6     7     8     9    10    11    12    13    14    15    16    17    18    19    20
        21    22    23    24    25    26    27    28    29    30    31    32    33    34    35    36    37    38    39    40
 ...........................................................................................................................
   1   0.05  0.05  0.00  0.00  0.00  0.00  0.00  0.00  0.00  0.00  0.00  0.00  0.00  0.00  0.00  0.00  0.00  0.00  0.00  0.00
       0.00  0.00  0.00  0.00  0.00  0.00  0.00  0.00  0.00  0.00  0.00  0.00  0.00  0.00  0.00  0.00  0.00  0.00  0.00  0.00
   2   0.05  0.05  0.00  0.00  0.00  0.00  0.00  0.00  0.00  0.00  0.00  0.00  0.00  0.00  0.00  0.00  0.00  0.00  0.00  0.00
       0.00  0.00  0.00  0.00  0.00  0.00  0.00  0.00  0.00  0.00  0.00  0.00  0.00  0.00  0.00  0.00  0.00  0.00  0.00  0.00
   3   0.00  0.00  0.00  0.00  0.00  0.00  0.00  0.00  0.00  0.00  0.00  0.00  0.00  0.00  0.00  0.00  0.00  0.00  0.00  0.00
       0.00  0.00  0.00  0.00  0.00  0.00  0.00  0.00  0.00  0.00  0.00  0.00  0.00  0.00  0.00  0.00  0.00  0.00  0.00  0.00
   4   0.00  0.00  0.00  0.00  0.00  0.00  0.00  0.00  0.00  0.00  0.00  0.00  0.00  0.00  0.00  0.00  0.00  0.00  0.00  0.00
       0.00  0.00  0.00  0.00  0.00  0.00  0.00  0.00  0.00  0.00  0.00  0.00  0.00  0.00  0.00  0.00  0.00  0.00  0.00  0.00
   5   0.00  0.00  0.00  0.00  0.00  0.00  0.00  0.00  0.00  0.00  0.00  0.00  0.00  0.00  0.00  0.00  0.00  0.00  0.00  0.00
       0.00  0.00  0.00  0.00  0.00  0.00  0.00  0.00  0.00  0.00  0.00  0.00  0.00  0.00  0.00  0.00  0.00  0.00  0.00  0.00
   6   0.00  0.00  0.00  0.00  0.00  0.00  0.00  0.00  0.00  0.00  0.00  0.00  0.00  0.00  0.00  0.00  0.00  0.00  0.00  0.00
       0.00  0.00  0.00  0.00  0.00  0.00  0.00  0.00  0.00  0.00  0.00  0.00  0.00  0.00  0.00  0.00  0.00  0.00  0.00  0.00
   7   0.00  0.00  0.00  0.00  0.00  0.00  0.00  0.00  0.00  0.00  0.00  0.00  0.00  0.00  0.00  0.00  0.00  0.00  0.00  0.00
       0.00  0.00  0.00  0.00  0.00  0.00  0.00  0.00  0.00  0.00  0.00  0.00  0.00  0.00  0.00  0.00  0.00  0.00  0.00  0.00
   8   0.00  0.00  0.00  0.00  0.00  0.00  0.00  0.00  0.00  0.00  0.00  0.00  0.00  0.00  0.00  0.00  0.00  0.00  0.00  0.00
       0.00  0.00  0.00  0.00  0.00  0.00  0.00  0.00  0.00  0.00  0.00  0.00  0.00  0.00  0.00  0.00  0.00  0.00  0.00  0.00
   9   0.00  0.00  0.00  0.00  0.00  0.00  0.00  0.00  0.00  0.00  0.00  0.00  0.00  0.00  0.00  0.00  0.00  0.00  0.00  0.00
       0.00  0.00  0.00  0.00  0.00  0.00  0.00  0.00  0.00  0.00  0.00  0.00  0.00  0.00  0.00  0.00  0.00  0.00  0.00  0.00
  10   0.00  0.00  0.00  0.00  0.00  0.00  0.00  0.00  0.00  0.00  0.00  0.00  0.00  0.00  0.00  0.00  0.00  0.00  0.00  0.00
       0.00  0.00  0.00  0.00  0.00  0.00  0.00  0.00  0.00  0.00  0.00  0.00  0.00  0.00  0.00  0.00  0.00  0.00  0.00  0.00
  11   0.00  0.00  0.00  0.00  0.00  0.00  0.00  0.00  0.00  0.00  0.00  0.00  0.00  0.00  0.00  0.00  0.00  0.00  0.00  0.00
       0.00  0.00  0.00  0.00  0.00  0.00  0.00  0.00  0.00  0.00  0.00  0.00  0.00  0.00  0.00  0.00  0.00  0.00  0.00  0.00
  12   0.00  0.00  0.00  0.00  0.00  0.00  0.00  0.00  0.00  0.00  0.00  0.00  0.00  0.00  0.00  0.00  0.00  0.00  0.00  0.00
       0.00  0.00  0.00  0.00  0.00  0.00  0.00  0.00  0.00  0.00  0.00  0.00  0.00  0.00  0.00  0.00  0.00  0.00  0.00  0.00
  13   0.00  0.00  0.00  0.00  0.00  0.00  0.00  0.00  0.00  0.00  0.00  0.00  0.00  0.00  0.00  0.00  0.00  0.00  0.00  0.00
       0.00  0.00  0.00  0.00  0.00  0.00  0.00  0.00  0.00  0.00  0.00  0.00  0.00  0.00  0.00  0.00  0.00  0.00  0.00  0.00
  14   0.00  0.00  0.00  0.00  0.00  0.00  0.00  0.00  0.00  0.00  0.00  0.00  0.00  0.00  0.00  0.00  0.00  0.00  0.00  0.00
       0.00  0.00  0.00  0.00  0.00  0.00  0.00  0.00  0.00  0.00  0.00  0.00  0.00  0.00  0.00  0.00  0.00  0.00  0.00  0.00
  15   0.00  0.00  0.00  0.00  0.00  0.00  0.00  0.00  0.00  0.00  0.00  0.00  0.00  0.00  0.00  0.00  0.00  0.00  0.00  0.00
       0.00  0.00  0.00  0.00  0.00  0.00  0.00  0.00  0.00  0.00  0.00  0.00  0.00  0.00  0.00  0.00  0.00  0.00  0.00  0.00
  16   0.00  0.00  0.00  0.00  0.00  0.00  0.00  0.00  0.00  0.00  0.00  0.00  0.00  0.00  0.00  0.00  0.00  0.00  0.00  0.00
       0.00  0.00  0.00  0.00  0.00  0.00  0.00  0.00  0.00  0.00  0.00  0.00  0.00  0.00  0.00  0.00  0.00  0.00  0.00  0.00
  17   0.00  0.00  0.00  0.00  0.00  0.00  0.00  0.00  0.00  0.00  0.00  0.00  0.00  0.00  0.00  0.00  0.00  0.00  0.00  0.00
       0.00  0.00  0.00  0.00  0.00  0.00  0.00  0.00  0.00  0.00  0.00  0.00  0.00  0.00  0.00  0.00  0.00  0.00  0.00  0.00
  18   0.00  0.00  0.00  0.00  0.00  0.00  0.00  0.00  0.00  0.00  0.00  0.00  0.00  0.00  0.00  0.00  0.00  0.00  0.00  0.00
       0.00  0.00  0.00  0.00  0.00  0.00  0.00  0.00  0.00  0.00  0.00  0.00  0.00  0.00  0.00  0.00  0.00  0.00  0.00  0.00
  19   0.00  0.00  0.00  0.00  0.00  0.00  0.00  0.00  0.00  0.00  0.00  0.00  0.00  0.00  0.00  0.00  0.00  0.00  0.00  0.00
       0.00  0.00  0.00  0.00  0.00  0.00  0.00  0.00  0.00  0.00  0.00  0.00  0.00  0.00  0.00  0.00  0.00  0.00  0.00  0.00
  20   0.00  0.00  0.00  0.00  0.00  0.00  0.00  0.00  0.00  0.00  0.00  0.00  0.00  0.00  0.00  0.00  0.00  0.00  0.00  0.00
       0.00  0.00  0.00  0.00  0.00  0.00  0.00  0.00  0.00  0.00  0.00  0.00  0.00  0.00  0.00  0.00  0.00  0.00  0.00  0.00
  21   0.00  0.00  0.00  0.00  0.00  0.00  0.00  0.00  0.00  0.00  0.00  0.00  0.00  0.00  0.00  0.00  0.00  0.00  0.00  0.00
       0.00  0.00  0.00  0.00  0.00  0.00  0.00  0.00  0.00  0.00  0.00  0.00  0.00  0.00  0.00  0.00  0.00  0.00  0.00  0.00
  22   0.00  0.00  0.00  0.00  0.00  0.00  0.00  0.00  0.00  0.00  0.00  0.00  0.00  0.00  0.00  0.00  0.00  0.00  0.00  0.00
       0.00  0.00  0.00  0.00  0.00  0.00  0.00  0.00  0.00  0.00  0.00  0.00  0.00  0.00  0.00  0.00  0.00  0.00  0.00  0.00
  23   0.00  0.00  0.00  0.00  0.00  0.00  0.00  0.00  0.00  0.00  0.00  0.00  0.00  0.00  0.00  0.00  0.00  0.00  0.00  0.00
       0.00  0.00  0.00  0.00  0.00  0.00  0.00  0.00  0.00  0.00  0.00  0.00  0.00  0.00  0.00  0.00  0.00  0.00  0.00  0.00
  24   0.00  0.00  0.00  0.00  0.00  0.00  0.00  0.00  0.00  0.00  0.00  0.00  0.00  0.00  0.00  0.00  0.00  0.00  0.00  0.00
       0.00  0.00  0.00  0.00  0.00  0.00  0.00  0.00  0.00  0.00  0.00  0.00  0.00  0.00  0.00  0.00  0.00  0.00  0.00  0.00
  25   0.00  0.00  0.00  0.00  0.00  0.00  0.00  0.00  0.00  0.00  0.00  0.00  0.00  0.00  0.00  0.00  0.00  0.00  0.00  0.00
       0.00  0.00  0.00  0.00  0.00  0.00  0.00  0.00  0.00  0.00  0.00  0.00  0.00  0.00  0.00  0.00  0.00  0.00  0.00  0.00
  26   0.00  0.00  0.00  0.00  0.00  0.00  0.00  0.00  0.00  0.00  0.00  0.00  0.00  0.00  0.00  0.00  0.00  0.00  0.00  0.00
       0.00  0.00  0.00  0.00  0.00  0.00  0.00  0.00  0.00  0.00  0.00  0.00  0.00  0.00  0.00  0.00  0.00  0.00  0.00  0.00
  27   0.00  0.00  0.00  0.00  0.00  0.00  0.00  0.00  0.00  0.00  0.00  0.00  0.00  0.00  0.00  0.00  0.00  0.00  0.00  0.00
       0.00  0.00  0.00  0.00  0.00  0.00  0.00  0.00  0.00  0.00  0.00  0.00  0.00  0.00  0.00  0.00  0.00  0.00  0.00  0.00
  28   0.00  0.00  0.00  0.00  0.00  0.00  0.00  0.00  0.00  0.00  0.00  0.00  0.00  0.00  0.00  0.00  0.00  0.00  0.00  0.00
       0.00  0.00  0.00  0.00  0.00  0.00  0.00  0.00  0.00  0.00  0.00  0.00  0.00  0.00  0.00  0.00  0.00  0.00  0.00  0.00
  29   0.00  0.00  0.00  0.00  0.00  0.00  0.00  0.00  0.00  0.00  0.00  0.00  0.00  0.00  0.00  0.00  0.00  0.00  0.00  0.00
       0.00  0.00  0.00  0.00  0.00  0.00  0.00  0.00  0.00  0.00  0.00  0.00  0.00  0.00  0.00  0.00  0.00  0.00  0.00  0.00
  30   0.00  0.00  0.00  0.00  0.00  0.00  0.00  0.00  0.00  0.00  0.00  0.00  0.00  0.00  0.00  0.00  0.00  0.00  0.00  0.00
       0.00  0.00  0.00  0.00  0.00  0.00  0.00  0.00  0.00  0.00  0.00  0.00  0.00  0.00  0.00  0.00  0.00  0.00  0.00  0.00
  31   0.00  0.00  0.00  0.00  0.00  0.00  0.00  0.00  0.00  0.00  0.00  0.00  0.00  0.00  0.00  0.00  0.00  0.00  0.00  0.00
       0.00  0.00  0.00  0.00  0.00  0.00  0.00  0.00  0.00  0.00  0.00  0.00  0.00  0.00  0.00  0.00  0.00  0.00  0.00  0.00
  32   0.00  0.00  0.00  0.00  0.00  0.00  0.00  0.00  0.00  0.00  0.00  0.00  0.00  0.00  0.00  0.00  0.00  0.00  0.00  0.00
       0.00  0.00  0.00  0.00  0.00  0.00  0.00  0.00  0.00  0.00  0.00  0.00  0.00  0.00  0.00  0.00  0.00  0.00  0.00  0.00
  33   0.00  0.00  0.00  0.00  0.00  0.00  0.00  0.00  0.00  0.00  0.00  0.00  0.00  0.00  0.00  0.00  0.00  0.00  0.00  0.00
       0.00  0.00  0.00  0.00  0.00  0.00  0.00  0.00  0.00  0.00  0.00  0.00  0.00  0.00  0.00  0.00  0.00  0.00  0.00  0.00
  34   0.00  0.00  0.00  0.00  0.00  0.00  0.00  0.00  0.00  0.00  0.00  0.00  0.00  0.00  0.00  0.00  0.00  0.00  0.00  0.00
       0.00  0.00  0.00  0.00  0.00  0.00  0.00  0.00  0.00  0.00  0.00  0.00  0.00  0.00  0.00  0.00  0.00  0.00  0.00  0.00
  35   0.00  0.00  0.00  0.00  0.00  0.00  0.00  0.00  0.00  0.00  0.00  0.00  0.00  0.00  0.00  0.00  0.00  0.00  0.00  0.00
       0.00  0.00  0.00  0.00  0.00  0.00  0.00  0.00  0.00  0.00  0.00  0.00  0.00  0.00  0.00  0.00  0.00  0.00  0.00  0.00
  36   0.00  0.00  0.00  0.00  0.00  0.00  0.00  0.00  0.00  0.00  0.00  0.00  0.00  0.00  0.00  0.00  0.00  0.00  0.00  0.00
       0.00  0.00  0.00  0.00  0.00  0.00  0.00  0.00  0.00  0.00  0.00  0.00  0.00  0.00  0.00  0.00  0.00  0.00  0.00  0.00
  37   0.00  0.00  0.00  0.00  0.00  0.00  0.00  0.00  0.00  0.00  0.00  0.00  0.00  0.00  0.00  0.00  0.00  0.00  0.00  0.00
       0.00  0.00  0.00  0.00  0.00  0.00  0.00  0.00  0.00  0.00  0.00  0.00  0.00  0.00  0.00  0.00  0.00  0.00  0.00  0.00
  38   0.00  0.00  0.00  0.00  0.00  0.00  0.00  0.00  0.00  0.00  0.00  0.00  0.00  0.00  0.00  0.00  0.00  0.00  0.00  0.00
       0.00  0.00  0.00  0.00  0.00  0.00  0.00  0.00  0.00  0.00  0.00  0.00  0.00  0.00  0.00  0.00  0.00  0.00  0.00  0.00
  39   0.00  0.00  0.00  0.00  0.00  0.00  0.00  0.00  0.00  0.00  0.00  0.00  0.00  0.00  0.00  0.00  0.00  0.00  0.00  0.00
       0.00  0.00  0.00  0.00  0.00  0.00  0.00  0.00  0.00  0.00  0.00  0.00  0.00  0.00  0.00  0.00  0.00  0.00  0.00  0.00
  40   0.00  0.00  0.00  0.00  0.00  0.00  0.00  0.00  0.00  0.00  0.00  0.00  0.00  0.00  0.00  0.00  0.00  0.00  0.00  0.00
       0.00  0.00  0.00  0.00  0.00  0.00  0.00  0.00  0.00  0.00  0.00  0.00  0.00  0.00  0.00  0.00  0.00  0.00  0.00  0.00
 
 SOLVING FOR HEAD 

 CELL CONVERSIONS FOR ITER.=  1  LAYER=  1  STEP=  1  PERIOD=   1   (ROW,COL)
    DRY(  1,  1)   DRY(  1,  2)   DRY(  1,  3)   DRY(  1,  4)   DRY(  1,  5)   
    DRY(  1,  6)   DRY(  1,  7)   DRY(  1,  8)   DRY(  1,  9)   DRY(  1, 10)   
    DRY(  1, 11)   DRY(  1, 12)   DRY(  1, 13)   DRY(  1, 14)   DRY(  1, 15)   
    DRY(  1, 16)   DRY(  1, 17)   DRY(  1, 18)   DRY(  1, 19)   DRY(  1, 20)   
    DRY(  1, 21)   DRY(  1, 22)   DRY(  1, 23)   DRY(  1, 24)   DRY(  1, 25)   
    DRY(  1, 26)   DRY(  1, 27)   DRY(  1, 28)   DRY(  1, 29)   DRY(  1, 30)   
    DRY(  1, 31)   DRY(  1, 32)   DRY(  1, 33)   DRY(  1, 34)   DRY(  1, 35)   
    DRY(  1, 36)   DRY(  1, 37)   DRY(  1, 38)   DRY(  1, 39)   DRY(  1, 40)   
    DRY(  2,  1)   DRY(  2,  2)   DRY(  2,  3)   DRY(  2,  4)   DRY(  2,  5)   
    DRY(  2,  6)   DRY(  2,  7)   DRY(  2,  8)   DRY(  2,  9)   DRY(  2, 10)   
    DRY(  2, 11)   DRY(  2, 12)   DRY(  2, 13)   DRY(  2, 14)   DRY(  2, 15)   
    DRY(  2, 16)   DRY(  2, 17)   DRY(  2, 18)   DRY(  2, 19)   DRY(  2, 20)   
    DRY(  2, 21)   DRY(  2, 22)   DRY(  2, 23)   DRY(  2, 24)   DRY(  2, 25)   
    DRY(  2, 26)   DRY(  2, 27)   DRY(  2, 28)   DRY(  2, 29)   DRY(  2, 30)   
    DRY(  2, 31)   DRY(  2, 32)   DRY(  2, 33)   DRY(  2, 34)   DRY(  2, 35)   
    DRY(  2, 36)   DRY(  2, 37)   DRY(  2, 38)   DRY(  2, 39)   DRY(  2, 40)   
    DRY(  3,  1)   DRY(  3,  2)   DRY(  3,  3)   DRY(  3,  4)   DRY(  3,  5)   
    DRY(  3,  6)   DRY(  3,  7)   DRY(  3,  8)   DRY(  3,  9)   DRY(  3, 10)   
    DRY(  3, 11)   DRY(  3, 12)   DRY(  3, 13)   DRY(  3, 14)   DRY(  3, 15)   
    DRY(  3, 16)   DRY(  3, 17)   DRY(  3, 18)   DRY(  3, 19)   DRY(  3, 20)   
    DRY(  3, 21)   DRY(  3, 22)   DRY(  3, 23)   DRY(  3, 24)   DRY(  3, 25)   
    DRY(  3, 26)   DRY(  3, 27)   DRY(  3, 28)   DRY(  3, 29)   DRY(  3, 30)   
    DRY(  3, 31)   DRY(  3, 32)   DRY(  3, 33)   DRY(  3, 34)   DRY(  3, 35)   
    DRY(  3, 36)   DRY(  3, 37)   DRY(  3, 38)   DRY(  3, 39)   DRY(  3, 40)   
    DRY(  4,  1)   DRY(  4,  2)   DRY(  4,  3)   DRY(  4,  4)   DRY(  4,  5)   
    DRY(  4,  6)   DRY(  4,  7)   DRY(  4,  8)   DRY(  4,  9)   DRY(  4, 10)   
    DRY(  4, 11)   DRY(  4, 12)   DRY(  4, 13)   DRY(  4, 14)   DRY(  4, 15)   
    DRY(  4, 16)   DRY(  4, 17)   DRY(  4, 18)   DRY(  4, 19)   DRY(  4, 20)   
    DRY(  4, 21)   DRY(  4, 22)   DRY(  4, 23)   DRY(  4, 24)   DRY(  4, 25)   
    DRY(  4, 26)   DRY(  4, 27)   DRY(  4, 28)   DRY(  4, 29)   DRY(  4, 30)   
    DRY(  4, 31)   DRY(  4, 32)   DRY(  4, 33)   DRY(  4, 34)   DRY(  4, 35)   
    DRY(  4, 36)   DRY(  4, 37)   DRY(  4, 38)   DRY(  4, 39)   DRY(  4, 40)   
    DRY(  5,  1)   DRY(  5,  2)   DRY(  5,  3)   DRY(  5,  4)   DRY(  5,  5)   
    DRY(  5,  6)   DRY(  5,  7)   DRY(  5,  8)   DRY(  5,  9)   DRY(  5, 10)   
    DRY(  5, 11)   DRY(  5, 12)   DRY(  5, 13)   DRY(  5, 14)   DRY(  5, 15)   
    DRY(  5, 16)   DRY(  5, 17)   DRY(  5, 18)   DRY(  5, 19)   DRY(  5, 20)   
    DRY(  5, 21)   DRY(  5, 22)   DRY(  5, 23)   DRY(  5, 24)   DRY(  5, 25)   
    DRY(  5, 26)   DRY(  5, 27)   DRY(  5, 28)   DRY(  5, 29)   DRY(  5, 30)   
    DRY(  5, 31)   DRY(  5, 32)   DRY(  5, 33)   DRY(  5, 34)   DRY(  5, 35)   
    DRY(  5, 36)   DRY(  5, 37)   DRY(  5, 38)   DRY(  5, 39)   DRY(  5, 40)   
    DRY(  6,  1)   DRY(  6,  2)   DRY(  6,  3)   DRY(  6,  4)   DRY(  6,  5)   
    DRY(  6,  6)   DRY(  6,  7)   DRY(  6,  8)   DRY(  6,  9)   DRY(  6, 10)   
    DRY(  6, 11)   DRY(  6, 12)   DRY(  6, 13)   DRY(  6, 14)   DRY(  6, 15)   
    DRY(  6, 16)   DRY(  6, 17)   DRY(  6, 18)   DRY(  6, 19)   DRY(  6, 20)   
    DRY(  6, 21)   DRY(  6, 22)   DRY(  6, 23)   DRY(  6, 24)   DRY(  6, 25)   
    DRY(  6, 26)   DRY(  6, 27)   DRY(  6, 28)   DRY(  6, 29)   DRY(  6, 30)   
    DRY(  6, 31)   DRY(  6, 32)   DRY(  6, 33)   DRY(  6, 34)   DRY(  6, 35)   
    DRY(  6, 36)   DRY(  6, 37)   DRY(  6, 38)   DRY(  6, 39)   DRY(  6, 40)   
    DRY(  7,  1)   DRY(  7,  2)   DRY(  7,  3)   DRY(  7,  4)   DRY(  7,  5)   
    DRY(  7,  6)   DRY(  7,  7)   DRY(  7,  8)   DRY(  7,  9)   DRY(  7, 10)   
    DRY(  7, 11)   DRY(  7, 12)   DRY(  7, 13)   DRY(  7, 14)   DRY(  7, 15)   
    DRY(  7, 16)   DRY(  7, 17)   DRY(  7, 18)   DRY(  7, 19)   DRY(  7, 20)   
    DRY(  7, 21)   DRY(  7, 22)   DRY(  7, 23)   DRY(  7, 24)   DRY(  7, 25)   
    DRY(  7, 26)   DRY(  7, 27)   DRY(  7, 28)   DRY(  7, 29)   DRY(  7, 30)   
    DRY(  7, 31)   DRY(  7, 32)   DRY(  7, 33)   DRY(  7, 34)   DRY(  7, 35)   
    DRY(  7, 36)   DRY(  7, 37)   DRY(  7, 38)   DRY(  7, 39)   DRY(  7, 40)   
    DRY(  8,  1)   DRY(  8,  2)   DRY(  8,  3)   DRY(  8,  4)   DRY(  8,  5)   
    DRY(  8,  6)   DRY(  8,  7)   DRY(  8,  8)   DRY(  8,  9)   DRY(  8, 10)   
    DRY(  8, 11)   DRY(  8, 12)   DRY(  8, 13)   DRY(  8, 14)   DRY(  8, 15)   
    DRY(  8, 16)   DRY(  8, 17)   DRY(  8, 18)   DRY(  8, 19)   DRY(  8, 20)   
    DRY(  8, 21)   DRY(  8, 22)   DRY(  8, 23)   DRY(  8, 24)   DRY(  8, 25)   
    DRY(  8, 26)   DRY(  8, 27)   DRY(  8, 28)   DRY(  8, 29)   DRY(  8, 30)   
    DRY(  8, 31)   DRY(  8, 32)   DRY(  8, 33)   DRY(  8, 34)   DRY(  8, 35)   
    DRY(  8, 36)   DRY(  8, 37)   DRY(  8, 38)   DRY(  8, 39)   DRY(  8, 40)   
    DRY(  9,  1)   DRY(  9,  2)   DRY(  9,  3)   DRY(  9,  4)   DRY(  9,  5)   
    DRY(  9,  6)   DRY(  9,  7)   DRY(  9,  8)   DRY(  9,  9)   DRY(  9, 10)   
    DRY(  9, 11)   DRY(  9, 12)   DRY(  9, 13)   DRY(  9, 14)   DRY(  9, 15)   
    DRY(  9, 16)   DRY(  9, 17)   DRY(  9, 18)   DRY(  9, 19)   DRY(  9, 20)   
    DRY(  9, 21)   DRY(  9, 22)   DRY(  9, 23)   DRY(  9, 24)   DRY(  9, 25)   
    DRY(  9, 26)   DRY(  9, 27)   DRY(  9, 28)   DRY(  9, 29)   DRY(  9, 30)   
    DRY(  9, 31)   DRY(  9, 32)   DRY(  9, 33)   DRY(  9, 34)   DRY(  9, 35)   
    DRY(  9, 36)   DRY(  9, 37)   DRY(  9, 38)   DRY(  9, 39)   DRY(  9, 40)   
    DRY( 10,  1)   DRY( 10,  2)   DRY( 10,  3)   DRY( 10,  4)   DRY( 10,  5)   
    DRY( 10,  6)   DRY( 10,  7)   DRY( 10,  8)   DRY( 10,  9)   DRY( 10, 10)   
    DRY( 10, 11)   DRY( 10, 12)   DRY( 10, 13)   DRY( 10, 14)   DRY( 10, 15)   
    DRY( 10, 16)   DRY( 10, 17)   DRY( 10, 18)   DRY( 10, 19)   DRY( 10, 20)   
    DRY( 10, 21)   DRY( 10, 22)   DRY( 10, 23)   DRY( 10, 24)   DRY( 10, 25)   
    DRY( 10, 26)   DRY( 10, 27)   DRY( 10, 28)   DRY( 10, 29)   DRY( 10, 30)   
    DRY( 10, 31)   DRY( 10, 32)   DRY( 10, 33)   DRY( 10, 34)   DRY( 10, 35)   
    DRY( 10, 36)   DRY( 10, 37)   DRY( 10, 38)   DRY( 10, 39)   DRY( 10, 40)   
    DRY( 11,  1)   DRY( 11,  2)   DRY( 11,  3)   DRY( 11,  4)   DRY( 11,  5)   
    DRY( 11,  6)   DRY( 11,  7)   DRY( 11,  8)   DRY( 11,  9)   DRY( 11, 10)   
    DRY( 11, 11)   DRY( 11, 12)   DRY( 11, 13)   DRY( 11, 14)   DRY( 11, 15)   
    DRY( 11, 16)   DRY( 11, 17)   DRY( 11, 18)   DRY( 11, 19)   DRY( 11, 20)   
    DRY( 11, 21)   DRY( 11, 22)   DRY( 11, 23)   DRY( 11, 24)   DRY( 11, 25)   
    DRY( 11, 26)   DRY( 11, 27)   DRY( 11, 28)   DRY( 11, 29)   DRY( 11, 30)   
    DRY( 11, 31)   DRY( 11, 32)   DRY( 11, 33)   DRY( 11, 34)   DRY( 11, 35)   
    DRY( 11, 36)   DRY( 11, 37)   DRY( 11, 38)   DRY( 11, 39)   DRY( 11, 40)   
    DRY( 12,  1)   DRY( 12,  2)   DRY( 12,  3)   DRY( 12,  4)   DRY( 12,  5)   
    DRY( 12,  6)   DRY( 12,  7)   DRY( 12,  8)   DRY( 12,  9)   DRY( 12, 10)   
    DRY( 12, 11)   DRY( 12, 12)   DRY( 12, 13)   DRY( 12, 14)   DRY( 12, 15)   
    DRY( 12, 16)   DRY( 12, 17)   DRY( 12, 18)   DRY( 12, 19)   DRY( 12, 20)   
    DRY( 12, 21)   DRY( 12, 22)   DRY( 12, 23)   DRY( 12, 24)   DRY( 12, 25)   
    DRY( 12, 26)   DRY( 12, 27)   DRY( 12, 28)   DRY( 12, 29)   DRY( 12, 30)   
    DRY( 12, 31)   DRY( 12, 32)   DRY( 12, 33)   DRY( 12, 34)   DRY( 12, 35)   
    DRY( 12, 36)   DRY( 12, 37)   DRY( 12, 38)   DRY( 12, 39)   DRY( 12, 40)   
    DRY( 13,  1)   DRY( 13,  2)   DRY( 13,  3)   DRY( 13,  4)   DRY( 13,  5)   
    DRY( 13,  6)   DRY( 13,  7)   DRY( 13,  8)   DRY( 13,  9)   DRY( 13, 10)   
    DRY( 13, 11)   DRY( 13, 12)   DRY( 13, 13)   DRY( 13, 14)   DRY( 13, 15)   
    DRY( 13, 16)   DRY( 13, 17)   DRY( 13, 18)   DRY( 13, 19)   DRY( 13, 20)   
    DRY( 13, 21)   DRY( 13, 22)   DRY( 13, 23)   DRY( 13, 24)   DRY( 13, 25)   
    DRY( 13, 26)   DRY( 13, 27)   DRY( 13, 28)   DRY( 13, 29)   DRY( 13, 30)   
    DRY( 13, 31)   DRY( 13, 32)   DRY( 13, 33)   DRY( 13, 34)   DRY( 13, 35)   
    DRY( 13, 36)   DRY( 13, 37)   DRY( 13, 38)   DRY( 13, 39)   DRY( 13, 40)   
    DRY( 14,  1)   DRY( 14,  2)   DRY( 14,  3)   DRY( 14,  4)   DRY( 14,  5)   
    DRY( 14,  6)   DRY( 14,  7)   DRY( 14,  8)   DRY( 14,  9)   DRY( 14, 10)   
    DRY( 14, 11)   DRY( 14, 12)   DRY( 14, 13)   DRY( 14, 14)   DRY( 14, 15)   
    DRY( 14, 16)   DRY( 14, 17)   DRY( 14, 18)   DRY( 14, 19)   DRY( 14, 20)   
    DRY( 14, 21)   DRY( 14, 22)   DRY( 14, 23)   DRY( 14, 24)   DRY( 14, 25)   
    DRY( 14, 26)   DRY( 14, 27)   DRY( 14, 28)   DRY( 14, 29)   DRY( 14, 30)   
    DRY( 14, 31)   DRY( 14, 32)   DRY( 14, 33)   DRY( 14, 34)   DRY( 14, 35)   
    DRY( 14, 36)   DRY( 14, 37)   DRY( 14, 38)   DRY( 14, 39)   DRY( 14, 40)   
    DRY( 15,  1)   DRY( 15,  2)   DRY( 15,  3)   DRY( 15,  4)   DRY( 15,  5)   
    DRY( 15,  6)   DRY( 15,  7)   DRY( 15,  8)   DRY( 15,  9)   DRY( 15, 10)   
    DRY( 15, 11)   DRY( 15, 12)   DRY( 15, 13)   DRY( 15, 14)   DRY( 15, 15)   
    DRY( 15, 16)   DRY( 15, 17)   DRY( 15, 18)   DRY( 15, 19)   DRY( 15, 20)   
    DRY( 15, 21)   DRY( 15, 22)   DRY( 15, 23)   DRY( 15, 24)   DRY( 15, 25)   
    DRY( 15, 26)   DRY( 15, 27)   DRY( 15, 28)   DRY( 15, 29)   DRY( 15, 30)   
    DRY( 15, 31)   DRY( 15, 32)   DRY( 15, 33)   DRY( 15, 34)   DRY( 15, 35)   
    DRY( 15, 36)   DRY( 15, 37)   DRY( 15, 38)   DRY( 15, 39)   DRY( 15, 40)   
    DRY( 16,  1)   DRY( 16,  2)   DRY( 16,  3)   DRY( 16,  4)   DRY( 16,  5)   
    DRY( 16,  6)   DRY( 16,  7)   DRY( 16,  8)   DRY( 16,  9)   DRY( 16, 10)   
    DRY( 16, 11)   DRY( 16, 12)   DRY( 16, 13)   DRY( 16, 14)   DRY( 16, 15)   
    DRY( 16, 16)   DRY( 16, 17)   DRY( 16, 18)   DRY( 16, 19)   DRY( 16, 20)   
    DRY( 16, 21)   DRY( 16, 22)   DRY( 16, 23)   DRY( 16, 24)   DRY( 16, 25)   
    DRY( 16, 26)   DRY( 16, 27)   DRY( 16, 28)   DRY( 16, 29)   DRY( 16, 30)   
    DRY( 16, 31)   DRY( 16, 32)   DRY( 16, 33)   DRY( 16, 34)   DRY( 16, 35)   
    DRY( 16, 36)   DRY( 16, 37)   DRY( 16, 38)   DRY( 16, 39)   DRY( 16, 40)   
    DRY( 17,  1)   DRY( 17,  2)   DRY( 17,  3)   DRY( 17,  4)   DRY( 17,  5)   
    DRY( 17,  6)   DRY( 17,  7)   DRY( 17,  8)   DRY( 17,  9)   DRY( 17, 10)   
    DRY( 17, 11)   DRY( 17, 12)   DRY( 17, 13)   DRY( 17, 14)   DRY( 17, 15)   
    DRY( 17, 16)   DRY( 17, 17)   DRY( 17, 18)   DRY( 17, 19)   DRY( 17, 20)   
    DRY( 17, 21)   DRY( 17, 22)   DRY( 17, 23)   DRY( 17, 24)   DRY( 17, 25)   
    DRY( 17, 26)   DRY( 17, 27)   DRY( 17, 28)   DRY( 17, 29)   DRY( 17, 30)   
    DRY( 17, 31)   DRY( 17, 32)   DRY( 17, 33)   DRY( 17, 34)   DRY( 17, 35)   
    DRY( 17, 36)   DRY( 17, 37)   DRY( 17, 38)   DRY( 17, 39)   DRY( 17, 40)   
    DRY( 18,  1)   DRY( 18,  2)   DRY( 18,  3)   DRY( 18,  4)   DRY( 18,  5)   
    DRY( 18,  6)   DRY( 18,  7)   DRY( 18,  8)   DRY( 18,  9)   DRY( 18, 10)   
    DRY( 18, 11)   DRY( 18, 12)   DRY( 18, 13)   DRY( 18, 14)   DRY( 18, 15)   
    DRY( 18, 16)   DRY( 18, 17)   DRY( 18, 18)   DRY( 18, 19)   DRY( 18, 20)   
    DRY( 18, 21)   DRY( 18, 22)   DRY( 18, 23)   DRY( 18, 24)   DRY( 18, 25)   
    DRY( 18, 26)   DRY( 18, 27)   DRY( 18, 28)   DRY( 18, 29)   DRY( 18, 30)   
    DRY( 18, 31)   DRY( 18, 32)   DRY( 18, 33)   DRY( 18, 34)   DRY( 18, 35)   
    DRY( 18, 36)   DRY( 18, 37)   DRY( 18, 38)   DRY( 18, 39)   DRY( 18, 40)   
    DRY( 19,  1)   DRY( 19,  2)   DRY( 19,  3)   DRY( 19,  4)   DRY( 19,  5)   
    DRY( 19,  6)   DRY( 19,  7)   DRY( 19,  8)   DRY( 19,  9)   DRY( 19, 10)   
    DRY( 19, 11)   DRY( 19, 12)   DRY( 19, 13)   DRY( 19, 14)   DRY( 19, 15)   
    DRY( 19, 16)   DRY( 19, 17)   DRY( 19, 18)   DRY( 19, 19)   DRY( 19, 20)   
    DRY( 19, 21)   DRY( 19, 22)   DRY( 19, 23)   DRY( 19, 24)   DRY( 19, 25)   
    DRY( 19, 26)   DRY( 19, 27)   DRY( 19, 28)   DRY( 19, 29)   DRY( 19, 30)   
    DRY( 19, 31)   DRY( 19, 32)   DRY( 19, 33)   DRY( 19, 34)   DRY( 19, 35)   
    DRY( 19, 36)   DRY( 19, 37)   DRY( 19, 38)   DRY( 19, 39)   DRY( 19, 40)   
    DRY( 20,  1)   DRY( 20,  2)   DRY( 20,  3)   DRY( 20,  4)   DRY( 20,  5)   
    DRY( 20,  6)   DRY( 20,  7)   DRY( 20,  8)   DRY( 20,  9)   DRY( 20, 10)   
    DRY( 20, 11)   DRY( 20, 12)   DRY( 20, 13)   DRY( 20, 14)   DRY( 20, 15)   
    DRY( 20, 16)   DRY( 20, 17)   DRY( 20, 18)   DRY( 20, 19)   DRY( 20, 20)   
    DRY( 20, 21)   DRY( 20, 22)   DRY( 20, 23)   DRY( 20, 24)   DRY( 20, 25)   
    DRY( 20, 26)   DRY( 20, 27)   DRY( 20, 28)   DRY( 20, 29)   DRY( 20, 30)   
    DRY( 20, 31)   DRY( 20, 32)   DRY( 20, 33)   DRY( 20, 34)   DRY( 20, 35)   
    DRY( 20, 36)   DRY( 20, 37)   DRY( 20, 38)   DRY( 20, 39)   DRY( 20, 40)   
    DRY( 21,  1)   DRY( 21,  2)   DRY( 21,  3)   DRY( 21,  4)   DRY( 21,  5)   
    DRY( 21,  6)   DRY( 21,  7)   DRY( 21,  8)   DRY( 21,  9)   DRY( 21, 10)   
    DRY( 21, 11)   DRY( 21, 12)   DRY( 21, 13)   DRY( 21, 14)   DRY( 21, 15)   
    DRY( 21, 16)   DRY( 21, 17)   DRY( 21, 18)   DRY( 21, 19)   DRY( 21, 20)   
    DRY( 21, 21)   DRY( 21, 22)   DRY( 21, 23)   DRY( 21, 24)   DRY( 21, 25)   
    DRY( 21, 26)   DRY( 21, 27)   DRY( 21, 28)   DRY( 21, 29)   DRY( 21, 30)   
    DRY( 21, 31)   DRY( 21, 32)   DRY( 21, 33)   DRY( 21, 34)   DRY( 21, 35)   
    DRY( 21, 36)   DRY( 21, 37)   DRY( 21, 38)   DRY( 21, 39)   DRY( 21, 40)   
    DRY( 22,  1)   DRY( 22,  2)   DRY( 22,  3)   DRY( 22,  4)   DRY( 22,  5)   
    DRY( 22,  6)   DRY( 22,  7)   DRY( 22,  8)   DRY( 22,  9)   DRY( 22, 10)   
    DRY( 22, 11)   DRY( 22, 12)   DRY( 22, 13)   DRY( 22, 14)   DRY( 22, 15)   
    DRY( 22, 16)   DRY( 22, 17)   DRY( 22, 18)   DRY( 22, 19)   DRY( 22, 20)   
    DRY( 22, 21)   DRY( 22, 22)   DRY( 22, 23)   DRY( 22, 24)   DRY( 22, 25)   
    DRY( 22, 26)   DRY( 22, 27)   DRY( 22, 28)   DRY( 22, 29)   DRY( 22, 30)   
    DRY( 22, 31)   DRY( 22, 32)   DRY( 22, 33)   DRY( 22, 34)   DRY( 22, 35)   
    DRY( 22, 36)   DRY( 22, 37)   DRY( 22, 38)   DRY( 22, 39)   DRY( 22, 40)   
    DRY( 23,  1)   DRY( 23,  2)   DRY( 23,  3)   DRY( 23,  4)   DRY( 23,  5)   
    DRY( 23,  6)   DRY( 23,  7)   DRY( 23,  8)   DRY( 23,  9)   DRY( 23, 10)   
    DRY( 23, 11)   DRY( 23, 12)   DRY( 23, 13)   DRY( 23, 14)   DRY( 23, 15)   
    DRY( 23, 16)   DRY( 23, 17)   DRY( 23, 18)   DRY( 23, 19)   DRY( 23, 20)   
    DRY( 23, 21)   DRY( 23, 22)   DRY( 23, 23)   DRY( 23, 24)   DRY( 23, 25)   
    DRY( 23, 26)   DRY( 23, 27)   DRY( 23, 28)   DRY( 23, 29)   DRY( 23, 30)   
    DRY( 23, 31)   DRY( 23, 32)   DRY( 23, 33)   DRY( 23, 34)   DRY( 23, 35)   
    DRY( 23, 36)   DRY( 23, 37)   DRY( 23, 38)   DRY( 23, 39)   DRY( 23, 40)   
    DRY( 24,  1)   DRY( 24,  2)   DRY( 24,  3)   DRY( 24,  4)   DRY( 24,  5)   
    DRY( 24,  6)   DRY( 24,  7)   DRY( 24,  8)   DRY( 24,  9)   DRY( 24, 10)   
    DRY( 24, 11)   DRY( 24, 12)   DRY( 24, 13)   DRY( 24, 14)   DRY( 24, 15)   
    DRY( 24, 16)   DRY( 24, 17)   DRY( 24, 18)   DRY( 24, 19)   DRY( 24, 20)   
    DRY( 24, 21)   DRY( 24, 22)   DRY( 24, 23)   DRY( 24, 24)   DRY( 24, 25)   
    DRY( 24, 26)   DRY( 24, 27)   DRY( 24, 28)   DRY( 24, 29)   DRY( 24, 30)   
    DRY( 24, 31)   DRY( 24, 32)   DRY( 24, 33)   DRY( 24, 34)   DRY( 24, 35)   
    DRY( 24, 36)   DRY( 24, 37)   DRY( 24, 38)   DRY( 24, 39)   DRY( 24, 40)   
    DRY( 25,  1)   DRY( 25,  2)   DRY( 25,  3)   DRY( 25,  4)   DRY( 25,  5)   
    DRY( 25,  6)   DRY( 25,  7)   DRY( 25,  8)   DRY( 25,  9)   DRY( 25, 10)   
    DRY( 25, 11)   DRY( 25, 12)   DRY( 25, 13)   DRY( 25, 14)   DRY( 25, 15)   
    DRY( 25, 16)   DRY( 25, 17)   DRY( 25, 18)   DRY( 25, 19)   DRY( 25, 20)   
    DRY( 25, 21)   DRY( 25, 22)   DRY( 25, 23)   DRY( 25, 24)   DRY( 25, 25)   
    DRY( 25, 26)   DRY( 25, 27)   DRY( 25, 28)   DRY( 25, 29)   DRY( 25, 30)   
    DRY( 25, 31)   DRY( 25, 32)   DRY( 25, 33)   DRY( 25, 34)   DRY( 25, 35)   
    DRY( 25, 36)   DRY( 25, 37)   DRY( 25, 38)   DRY( 25, 39)   DRY( 25, 40)   
    DRY( 26,  1)   DRY( 26,  2)   DRY( 26,  3)   DRY( 26,  4)   DRY( 26,  5)   
    DRY( 26,  6)   DRY( 26,  7)   DRY( 26,  8)   DRY( 26,  9)   DRY( 26, 10)   
    DRY( 26, 11)   DRY( 26, 12)   DRY( 26, 13)   DRY( 26, 14)   DRY( 26, 15)   
    DRY( 26, 16)   DRY( 26, 17)   DRY( 26, 18)   DRY( 26, 19)   DRY( 26, 20)   
    DRY( 26, 21)   DRY( 26, 22)   DRY( 26, 23)   DRY( 26, 24)   DRY( 26, 25)   
    DRY( 26, 26)   DRY( 26, 27)   DRY( 26, 28)   DRY( 26, 29)   DRY( 26, 30)   
    DRY( 26, 31)   DRY( 26, 32)   DRY( 26, 33)   DRY( 26, 34)   DRY( 26, 35)   
    DRY( 26, 36)   DRY( 26, 37)   DRY( 26, 38)   DRY( 26, 39)   DRY( 26, 40)   
    DRY( 27,  1)   DRY( 27,  2)   DRY( 27,  3)   DRY( 27,  4)   DRY( 27,  5)   
    DRY( 27,  6)   DRY( 27,  7)   DRY( 27,  8)   DRY( 27,  9)   DRY( 27, 10)   
    DRY( 27, 11)   DRY( 27, 12)   DRY( 27, 13)   DRY( 27, 14)   DRY( 27, 15)   
    DRY( 27, 16)   DRY( 27, 17)   DRY( 27, 18)   DRY( 27, 19)   DRY( 27, 20)   
    DRY( 27, 21)   DRY( 27, 22)   DRY( 27, 23)   DRY( 27, 24)   DRY( 27, 25)   
    DRY( 27, 26)   DRY( 27, 27)   DRY( 27, 28)   DRY( 27, 29)   DRY( 27, 30)   
    DRY( 27, 31)   DRY( 27, 32)   DRY( 27, 33)   DRY( 27, 34)   DRY( 27, 35)   
    DRY( 27, 36)   DRY( 27, 37)   DRY( 27, 38)   DRY( 27, 39)   DRY( 27, 40)   
    DRY( 28,  1)   DRY( 28,  2)   DRY( 28,  3)   DRY( 28,  4)   DRY( 28,  5)   
    DRY( 28,  6)   DRY( 28,  7)   DRY( 28,  8)   DRY( 28,  9)   DRY( 28, 10)   
    DRY( 28, 11)   DRY( 28, 12)   DRY( 28, 13)   DRY( 28, 14)   DRY( 28, 15)   
    DRY( 28, 16)   DRY( 28, 17)   DRY( 28, 18)   DRY( 28, 19)   DRY( 28, 20)   
    DRY( 28, 21)   DRY( 28, 22)   DRY( 28, 23)   DRY( 28, 24)   DRY( 28, 25)   
    DRY( 28, 26)   DRY( 28, 27)   DRY( 28, 28)   DRY( 28, 29)   DRY( 28, 30)   
    DRY( 28, 31)   DRY( 28, 32)   DRY( 28, 33)   DRY( 28, 34)   DRY( 28, 35)   
    DRY( 28, 36)   DRY( 28, 37)   DRY( 28, 38)   DRY( 28, 39)   DRY( 28, 40)   
    DRY( 29,  1)   DRY( 29,  2)   DRY( 29,  3)   DRY( 29,  4)   DRY( 29,  5)   
    DRY( 29,  6)   DRY( 29,  7)   DRY( 29,  8)   DRY( 29,  9)   DRY( 29, 10)   
    DRY( 29, 11)   DRY( 29, 12)   DRY( 29, 13)   DRY( 29, 14)   DRY( 29, 15)   
    DRY( 29, 16)   DRY( 29, 17)   DRY( 29, 18)   DRY( 29, 19)   DRY( 29, 20)   
    DRY( 29, 21)   DRY( 29, 22)   DRY( 29, 23)   DRY( 29, 24)   DRY( 29, 25)   
    DRY( 29, 26)   DRY( 29, 27)   DRY( 29, 28)   DRY( 29, 29)   DRY( 29, 30)   
    DRY( 29, 31)   DRY( 29, 32)   DRY( 29, 33)   DRY( 29, 34)   DRY( 29, 35)   
    DRY( 29, 36)   DRY( 29, 37)   DRY( 29, 38)   DRY( 29, 39)   DRY( 29, 40)   
    DRY( 30,  1)   DRY( 30,  2)   DRY( 30,  3)   DRY( 30,  4)   DRY( 30,  5)   
    DRY( 30,  6)   DRY( 30,  7)   DRY( 30,  8)   DRY( 30,  9)   DRY( 30, 10)   
    DRY( 30, 11)   DRY( 30, 12)   DRY( 30, 13)   DRY( 30, 14)   DRY( 30, 15)   
    DRY( 30, 16)   DRY( 30, 17)   DRY( 30, 18)   DRY( 30, 19)   DRY( 30, 20)   
    DRY( 30, 21)   DRY( 30, 22)   DRY( 30, 23)   DRY( 30, 24)   DRY( 30, 25)   
    DRY( 30, 26)   DRY( 30, 27)   DRY( 30, 28)   DRY( 30, 29)   DRY( 30, 30)   
    DRY( 30, 31)   DRY( 30, 32)   DRY( 30, 33)   DRY( 30, 34)   DRY( 30, 35)   
    DRY( 30, 36)   DRY( 30, 37)   DRY( 30, 38)   DRY( 30, 39)   DRY( 30, 40)   
    DRY( 31,  1)   DRY( 31,  2)   DRY( 31,  3)   DRY( 31,  4)   DRY( 31,  5)   
    DRY( 31,  6)   DRY( 31,  7)   DRY( 31,  8)   DRY( 31,  9)   DRY( 31, 10)   
    DRY( 31, 11)   DRY( 31, 12)   DRY( 31, 13)   DRY( 31, 14)   DRY( 31, 15)   
    DRY( 31, 16)   DRY( 31, 17)   DRY( 31, 18)   DRY( 31, 19)   DRY( 31, 20)   
    DRY( 31, 21)   DRY( 31, 22)   DRY( 31, 23)   DRY( 31, 24)   DRY( 31, 25)   
    DRY( 31, 26)   DRY( 31, 27)   DRY( 31, 28)   DRY( 31, 29)   DRY( 31, 30)   
    DRY( 31, 31)   DRY( 31, 32)   DRY( 31, 33)   DRY( 31, 34)   DRY( 31, 35)   
    DRY( 31, 36)   DRY( 31, 37)   DRY( 31, 38)   DRY( 31, 39)   DRY( 31, 40)   
    DRY( 32,  1)   DRY( 32,  2)   DRY( 32,  3)   DRY( 32,  4)   DRY( 32,  5)   
    DRY( 32,  6)   DRY( 32,  7)   DRY( 32,  8)   DRY( 32,  9)   DRY( 32, 10)   
    DRY( 32, 11)   DRY( 32, 12)   DRY( 32, 13)   DRY( 32, 14)   DRY( 32, 15)   
    DRY( 32, 16)   DRY( 32, 17)   DRY( 32, 18)   DRY( 32, 19)   DRY( 32, 20)   
    DRY( 32, 21)   DRY( 32, 22)   DRY( 32, 23)   DRY( 32, 24)   DRY( 32, 25)   
    DRY( 32, 26)   DRY( 32, 27)   DRY( 32, 28)   DRY( 32, 29)   DRY( 32, 30)   
    DRY( 32, 31)   DRY( 32, 32)   DRY( 32, 33)   DRY( 32, 34)   DRY( 32, 35)   
    DRY( 32, 36)   DRY( 32, 37)   DRY( 32, 38)   DRY( 32, 39)   DRY( 32, 40)   
    DRY( 33,  1)   DRY( 33,  2)   DRY( 33,  3)   DRY( 33,  4)   DRY( 33,  5)   
    DRY( 33,  6)   DRY( 33,  7)   DRY( 33,  8)   DRY( 33,  9)   DRY( 33, 10)   
    DRY( 33, 11)   DRY( 33, 12)   DRY( 33, 13)   DRY( 33, 14)   DRY( 33, 15)   
    DRY( 33, 16)   DRY( 33, 17)   DRY( 33, 18)   DRY( 33, 19)   DRY( 33, 20)   
    DRY( 33, 21)   DRY( 33, 22)   DRY( 33, 23)   DRY( 33, 24)   DRY( 33, 25)   
    DRY( 33, 26)   DRY( 33, 27)   DRY( 33, 28)   DRY( 33, 29)   DRY( 33, 30)   
    DRY( 33, 31)   DRY( 33, 32)   DRY( 33, 33)   DRY( 33, 34)   DRY( 33, 35)   
    DRY( 33, 36)   DRY( 33, 37)   DRY( 33, 38)   DRY( 33, 39)   DRY( 33, 40)   
    DRY( 34,  1)   DRY( 34,  2)   DRY( 34,  3)   DRY( 34,  4)   DRY( 34,  5)   
    DRY( 34,  6)   DRY( 34,  7)   DRY( 34,  8)   DRY( 34,  9)   DRY( 34, 10)   
    DRY( 34, 11)   DRY( 34, 12)   DRY( 34, 13)   DRY( 34, 14)   DRY( 34, 15)   
    DRY( 34, 16)   DRY( 34, 17)   DRY( 34, 18)   DRY( 34, 19)   DRY( 34, 20)   
    DRY( 34, 21)   DRY( 34, 22)   DRY( 34, 23)   DRY( 34, 24)   DRY( 34, 25)   
    DRY( 34, 26)   DRY( 34, 27)   DRY( 34, 28)   DRY( 34, 29)   DRY( 34, 30)   
    DRY( 34, 31)   DRY( 34, 32)   DRY( 34, 33)   DRY( 34, 34)   DRY( 34, 35)   
    DRY( 34, 36)   DRY( 34, 37)   DRY( 34, 38)   DRY( 34, 39)   DRY( 34, 40)   
    DRY( 35,  1)   DRY( 35,  2)   DRY( 35,  3)   DRY( 35,  4)   DRY( 35,  5)   
    DRY( 35,  6)   DRY( 35,  7)   DRY( 35,  8)   DRY( 35,  9)   DRY( 35, 10)   
    DRY( 35, 11)   DRY( 35, 12)   DRY( 35, 13)   DRY( 35, 14)   DRY( 35, 15)   
    DRY( 35, 16)   DRY( 35, 17)   DRY( 35, 18)   DRY( 35, 19)   DRY( 35, 20)   
    DRY( 35, 21)   DRY( 35, 22)   DRY( 35, 23)   DRY( 35, 24)   DRY( 35, 25)   
    DRY( 35, 26)   DRY( 35, 27)   DRY( 35, 28)   DRY( 35, 29)   DRY( 35, 30)   
    DRY( 35, 31)   DRY( 35, 32)   DRY( 35, 33)   DRY( 35, 34)   DRY( 35, 35)   
    DRY( 35, 36)   DRY( 35, 37)   DRY( 35, 38)   DRY( 35, 39)   DRY( 35, 40)   
    DRY( 36,  1)   DRY( 36,  2)   DRY( 36,  3)   DRY( 36,  4)   DRY( 36,  5)   
    DRY( 36,  6)   DRY( 36,  7)   DRY( 36,  8)   DRY( 36,  9)   DRY( 36, 10)   
    DRY( 36, 11)   DRY( 36, 12)   DRY( 36, 13)   DRY( 36, 14)   DRY( 36, 15)   
    DRY( 36, 16)   DRY( 36, 17)   DRY( 36, 18)   DRY( 36, 19)   DRY( 36, 20)   
    DRY( 36, 21)   DRY( 36, 22)   DRY( 36, 23)   DRY( 36, 24)   DRY( 36, 25)   
    DRY( 36, 26)   DRY( 36, 27)   DRY( 36, 28)   DRY( 36, 29)   DRY( 36, 30)   
    DRY( 36, 31)   DRY( 36, 32)   DRY( 36, 33)   DRY( 36, 34)   DRY( 36, 35)   
    DRY( 36, 36)   DRY( 36, 37)   DRY( 36, 38)   DRY( 36, 39)   DRY( 36, 40)   
    DRY( 37,  1)   DRY( 37,  2)   DRY( 37,  3)   DRY( 37,  4)   DRY( 37,  5)   
    DRY( 37,  6)   DRY( 37,  7)   DRY( 37,  8)   DRY( 37,  9)   DRY( 37, 10)   
    DRY( 37, 11)   DRY( 37, 12)   DRY( 37, 13)   DRY( 37, 14)   DRY( 37, 15)   
    DRY( 37, 16)   DRY( 37, 17)   DRY( 37, 18)   DRY( 37, 19)   DRY( 37, 20)   
    DRY( 37, 21)   DRY( 37, 22)   DRY( 37, 23)   DRY( 37, 24)   DRY( 37, 25)   
    DRY( 37, 26)   DRY( 37, 27)   DRY( 37, 28)   DRY( 37, 29)   DRY( 37, 30)   
    DRY( 37, 31)   DRY( 37, 32)   DRY( 37, 33)   DRY( 37, 34)   DRY( 37, 35)   
    DRY( 37, 36)   DRY( 37, 37)   DRY( 37, 38)   DRY( 37, 39)   DRY( 37, 40)   
    DRY( 38,  1)   DRY( 38,  2)   DRY( 38,  3)   DRY( 38,  4)   DRY( 38,  5)   
    DRY( 38,  6)   DRY( 38,  7)   DRY( 38,  8)   DRY( 38,  9)   DRY( 38, 10)   
    DRY( 38, 11)   DRY( 38, 12)   DRY( 38, 13)   DRY( 38, 14)   DRY( 38, 15)   
    DRY( 38, 16)   DRY( 38, 17)   DRY( 38, 18)   DRY( 38, 19)   DRY( 38, 20)   
    DRY( 38, 21)   DRY( 38, 22)   DRY( 38, 23)   DRY( 38, 24)   DRY( 38, 25)   
    DRY( 38, 26)   DRY( 38, 27)   DRY( 38, 28)   DRY( 38, 29)   DRY( 38, 30)   
    DRY( 38, 31)   DRY( 38, 32)   DRY( 38, 33)   DRY( 38, 34)   DRY( 38, 35)   
    DRY( 38, 36)   DRY( 38, 37)   DRY( 38, 38)   DRY( 38, 39)   DRY( 38, 40)   
    DRY( 39,  1)   DRY( 39,  2)   DRY( 39,  3)   DRY( 39,  4)   DRY( 39,  5)   
    DRY( 39,  6)   DRY( 39,  7)   DRY( 39,  8)   DRY( 39,  9)   DRY( 39, 10)   
    DRY( 39, 11)   DRY( 39, 12)   DRY( 39, 13)   DRY( 39, 14)   DRY( 39, 15)   
    DRY( 39, 16)   DRY( 39, 17)   DRY( 39, 18)   DRY( 39, 19)   DRY( 39, 20)   
    DRY( 39, 21)   DRY( 39, 22)   DRY( 39, 23)   DRY( 39, 24)   DRY( 39, 25)   
    DRY( 39, 26)   DRY( 39, 27)   DRY( 39, 28)   DRY( 39, 29)   DRY( 39, 30)   
    DRY( 39, 31)   DRY( 39, 32)   DRY( 39, 33)   DRY( 39, 34)   DRY( 39, 35)   
    DRY( 39, 36)   DRY( 39, 37)   DRY( 39, 38)   DRY( 39, 39)   DRY( 39, 40)   
    DRY( 40,  1)   DRY( 40,  2)   DRY( 40,  3)   DRY( 40,  4)   DRY( 40,  5)   
    DRY( 40,  6)   DRY( 40,  7)   DRY( 40,  8)   DRY( 40,  9)   DRY( 40, 10)   
    DRY( 40, 11)   DRY( 40, 12)   DRY( 40, 13)   DRY( 40, 14)   DRY( 40, 15)   
    DRY( 40, 16)   DRY( 40, 17)   DRY( 40, 18)   DRY( 40, 19)   DRY( 40, 20)   
    DRY( 40, 21)   DRY( 40, 22)   DRY( 40, 23)   DRY( 40, 24)   DRY( 40, 25)   
    DRY( 40, 26)   DRY( 40, 27)   DRY( 40, 28)   DRY( 40, 29)   DRY( 40, 30)   
    DRY( 40, 31)   DRY( 40, 32)   DRY( 40, 33)   DRY( 40, 34)   DRY( 40, 35)   
    DRY( 40, 36)   DRY( 40, 37)   DRY( 40, 38)   DRY( 40, 39)   DRY( 40, 40)   

 CELL CONVERSIONS FOR ITER.=  1  LAYER=  2  STEP=  1  PERIOD=   1   (ROW,COL)
    DRY(  1,  1)   DRY(  1,  2)   DRY(  1,  3)   DRY(  1,  4)   DRY(  1,  5)   
    DRY(  1,  6)   DRY(  1,  7)   DRY(  1,  8)   DRY(  1,  9)   DRY(  1, 10)   
    DRY(  1, 11)   DRY(  1, 12)   DRY(  1, 13)   DRY(  1, 14)   DRY(  1, 15)   
    DRY(  1, 16)   DRY(  1, 17)   DRY(  1, 18)   DRY(  1, 19)   DRY(  1, 20)   
    DRY(  1, 21)   DRY(  1, 22)   DRY(  1, 23)   DRY(  1, 24)   DRY(  1, 25)   
    DRY(  1, 26)   DRY(  1, 27)   DRY(  1, 28)   DRY(  1, 29)   DRY(  1, 30)   
    DRY(  1, 31)   DRY(  1, 32)   DRY(  1, 33)   DRY(  1, 34)   DRY(  1, 35)   
    DRY(  1, 36)   DRY(  1, 37)   DRY(  1, 38)   DRY(  1, 39)   DRY(  1, 40)   
    DRY(  2,  1)   DRY(  2,  2)   DRY(  2,  3)   DRY(  2,  4)   DRY(  2,  5)   
    DRY(  2,  6)   DRY(  2,  7)   DRY(  2,  8)   DRY(  2,  9)   DRY(  2, 10)   
    DRY(  2, 11)   DRY(  2, 12)   DRY(  2, 13)   DRY(  2, 14)   DRY(  2, 15)   
    DRY(  2, 16)   DRY(  2, 17)   DRY(  2, 18)   DRY(  2, 19)   DRY(  2, 20)   
    DRY(  2, 21)   DRY(  2, 22)   DRY(  2, 23)   DRY(  2, 24)   DRY(  2, 25)   
    DRY(  2, 26)   DRY(  2, 27)   DRY(  2, 28)   DRY(  2, 29)   DRY(  2, 30)   
    DRY(  2, 31)   DRY(  2, 32)   DRY(  2, 33)   DRY(  2, 34)   DRY(  2, 35)   
    DRY(  2, 36)   DRY(  2, 37)   DRY(  2, 38)   DRY(  2, 39)   DRY(  2, 40)   
    DRY(  3,  1)   DRY(  3,  2)   DRY(  3,  3)   DRY(  3,  4)   DRY(  3,  5)   
    DRY(  3,  6)   DRY(  3,  7)   DRY(  3,  8)   DRY(  3,  9)   DRY(  3, 10)   
    DRY(  3, 11)   DRY(  3, 12)   DRY(  3, 13)   DRY(  3, 14)   DRY(  3, 15)   
    DRY(  3, 16)   DRY(  3, 17)   DRY(  3, 18)   DRY(  3, 19)   DRY(  3, 20)   
    DRY(  3, 21)   DRY(  3, 22)   DRY(  3, 23)   DRY(  3, 24)   DRY(  3, 25)   
    DRY(  3, 26)   DRY(  3, 27)   DRY(  3, 28)   DRY(  3, 29)   DRY(  3, 30)   
    DRY(  3, 31)   DRY(  3, 32)   DRY(  3, 33)   DRY(  3, 34)   DRY(  3, 35)   
    DRY(  3, 36)   DRY(  3, 37)   DRY(  3, 38)   DRY(  3, 39)   DRY(  3, 40)   
    DRY(  4,  1)   DRY(  4,  2)   DRY(  4,  3)   DRY(  4,  4)   DRY(  4,  5)   
    DRY(  4,  6)   DRY(  4,  7)   DRY(  4,  8)   DRY(  4,  9)   DRY(  4, 10)   
    DRY(  4, 11)   DRY(  4, 12)   DRY(  4, 13)   DRY(  4, 14)   DRY(  4, 15)   
    DRY(  4, 16)   DRY(  4, 17)   DRY(  4, 18)   DRY(  4, 19)   DRY(  4, 20)   
    DRY(  4, 21)   DRY(  4, 22)   DRY(  4, 23)   DRY(  4, 24)   DRY(  4, 25)   
    DRY(  4, 26)   DRY(  4, 27)   DRY(  4, 28)   DRY(  4, 29)   DRY(  4, 30)   
    DRY(  4, 31)   DRY(  4, 32)   DRY(  4, 33)   DRY(  4, 34)   DRY(  4, 35)   
[...]
        26.87       26.61       26.38       26.17       26.00       25.84       25.70       25.59       25.48       25.39    
        25.34       25.30       25.26       25.23       25.19       25.15       25.11       25.07       25.04       25.00    
   6    39.24       38.93       38.36       37.60       36.74       35.83       34.91       34.02       33.17       32.36    
        31.60       30.90       30.25       29.66       29.11       28.62       28.17       27.77       27.41       27.09    
        26.81       26.55       26.33       26.13       25.96       25.81       25.68       25.57       25.48       25.40    
        25.35       25.30       25.26       25.22       25.19       25.15       25.11       25.07       25.04       25.00    
   7    37.61       37.38       36.95       36.36       35.67       34.91       34.14       33.37       32.62       31.89    
        31.21       30.56       29.96       29.41       28.90       28.44       28.02       27.64       27.30       27.00    
        26.73       26.49       26.28       26.09       25.93       25.78       25.66       25.55       25.46       25.39    
        25.34       25.30       25.26       25.22       25.18       25.15       25.11       25.07       25.04       25.00    
   8    36.19       36.01       35.66       35.20       34.64       34.02       33.37       32.70       32.05       31.41    
        30.79       30.21       29.66       29.15       28.68       28.25       27.86       27.51       27.19       26.90    
        26.64       26.42       26.22       26.04       25.88       25.75       25.63       25.52       25.42       25.37    
        25.33       25.29       25.25       25.22       25.18       25.14       25.11       25.07       25.04       25.00    
   9    34.92       34.78       34.51       34.14       33.69       33.17       32.62       32.05       31.47       30.91    
        30.36       29.83       29.34       28.87       28.44       28.05       27.69       27.36       27.06       26.79    
        26.55       26.34       26.15       25.99       25.84       25.71       25.59       25.49       25.40       25.36    
        25.32       25.29       25.25       25.21       25.18       25.14       25.11       25.07       25.04       25.00    
  10    33.80       33.69       33.48       33.17       32.79       32.36       31.89       31.41       30.91       30.42    
        29.93       29.46       29.01       28.59       28.20       27.84       27.51       27.20       26.93       26.68    
        26.46       26.26       26.09       25.93       25.79       25.67       25.56       25.46       25.38       25.35    
        25.31       25.28       25.24       25.21       25.17       25.14       25.10       25.07       25.03       25.00    
  11    32.80       32.71       32.54       32.28       31.97       31.60       31.21       30.79       30.36       29.93    
        29.50       29.08       28.68       28.30       27.95       27.62       27.32       27.05       26.79       26.57    
        26.36       26.18       26.02       25.87       25.74       25.63       25.52       25.42       25.37       25.34    
        25.31       25.27       25.24       25.20       25.17       25.13       25.10       25.07       25.03       25.00    
  12    31.91       31.83       31.69       31.47       31.21       30.90       30.56       30.21       29.83       29.46    
        29.08       28.71       28.36       28.02       27.71       27.41       27.14       26.89       26.66       26.45    
        26.26       26.10       25.94       25.81       25.69       25.59       25.49       25.41       25.37       25.33    
        25.30       25.26       25.23       25.20       25.16       25.13       25.10       25.07       25.03       25.00    
  13    31.11       31.04       30.92       30.73       30.51       30.25       29.96       29.66       29.34       29.01    
        28.68       28.36       28.05       27.75       27.47       27.20       26.96       26.73       26.52       26.34    
        26.17       26.01       25.87       25.75       25.64       25.54       25.46       25.40       25.36       25.32    
        25.29       25.26       25.22       25.19       25.16       25.13       25.10       25.06       25.03       25.00    
  14    30.38       30.33       30.22       30.07       29.87       29.66       29.41       29.15       28.87       28.59    
        28.30       28.02       27.75       27.49       27.24       27.00       26.78       26.58       26.39       26.22    
        26.07       25.93       25.80       25.69       25.59       25.50       25.42       25.38       25.35       25.31    
        25.28       25.25       25.22       25.19       25.15       25.12       25.09       25.06       25.03       25.00    
  15    29.72       29.67       29.59       29.46       29.30       29.11       28.90       28.68       28.44       28.20    
        27.95       27.71       27.47       27.24       27.02       26.81       26.61       26.43       26.27       26.11    
        25.98       25.85       25.74       25.64       25.54       25.46       25.39       25.36       25.33       25.30    
        25.27       25.24       25.21       25.18       25.15       25.12       25.09       25.06       25.03       25.00    
  16    29.12       29.09       29.01       28.91       28.78       28.62       28.44       28.25       28.05       27.84    
        27.62       27.41       27.20       27.00       26.81       26.62       26.45       26.29       26.15       26.01    
        25.89       25.77       25.67       25.58       25.50       25.42       25.38       25.35       25.32       25.29    
        25.26       25.23       25.20       25.17       25.15       25.12       25.09       25.06       25.03       25.00    
  17    28.60       28.56       28.50       28.42       28.31       28.17       28.02       27.86       27.69       27.51    
        27.32       27.14       26.96       26.78       26.61       26.45       26.30       26.16       26.03       25.91    
        25.80       25.70       25.61       25.53       25.46       25.41       25.37       25.34       25.31       25.28    
        25.25       25.23       25.20       25.17       25.14       25.11       25.08       25.06       25.03       25.00    
  18    28.13       28.10       28.05       27.98       27.88       27.77       27.64       27.51       27.36       27.20    
        27.05       26.89       26.73       26.58       26.43       26.29       26.16       26.04       25.92       25.82    
        25.72       25.64       25.56       25.48       25.42       25.39       25.36       25.33       25.30       25.27    
        25.25       25.22       25.19       25.16       25.13       25.11       25.08       25.05       25.03       25.00    
  19    27.71       27.69       27.65       27.58       27.51       27.41       27.30       27.19       27.06       26.93    
        26.79       26.66       26.52       26.39       26.27       26.15       26.03       25.92       25.83       25.74    
        25.65       25.58       25.51       25.44       25.41       25.38       25.35       25.32       25.29       25.26    
        25.24       25.21       25.18       25.16       25.13       25.10       25.08       25.05       25.03       25.00    
  20    27.34       27.32       27.29       27.24       27.17       27.09       27.00       26.90       26.79       26.68    
        26.57       26.45       26.34       26.22       26.11       26.01       25.91       25.82       25.74       25.66    
        25.59       25.53       25.48       25.43       25.39       25.36       25.33       25.31       25.28       25.25    
        25.23       25.20       25.17       25.15       25.12       25.10       25.07       25.05       25.02       25.00    
  21    27.01       27.00       26.97       26.93       26.87       26.81       26.73       26.64       26.55       26.46    
        26.36       26.26       26.17       26.07       25.98       25.89       25.80       25.72       25.65       25.59    
        25.54       25.49       25.45       25.41       25.38       25.35       25.32       25.29       25.27       25.24    
        25.22       25.19       25.17       25.14       25.12       25.09       25.07       25.05       25.02       25.00    
  22    26.73       26.72       26.69       26.66       26.61       26.55       26.49       26.42       26.34       26.26    
        26.18       26.10       26.01       25.93       25.85       25.77       25.70       25.64       25.58       25.53    
        25.49       25.46       25.42       25.39       25.36       25.33       25.30       25.28       25.25       25.23    
        25.21       25.18       25.16       25.14       25.11       25.09       25.07       25.04       25.02       25.00    
  23    26.48       26.47       26.45       26.42       26.38       26.33       26.28       26.22       26.15       26.09    
        26.02       25.94       25.87       25.80       25.74       25.67       25.61       25.56       25.51       25.48    
        25.45       25.42       25.39       25.37       25.34       25.31       25.29       25.26       25.24       25.22    
        25.19       25.17       25.15       25.13       25.11       25.09       25.06       25.04       25.02       25.00    
  24    26.26       26.25       26.23       26.21       26.17       26.13       26.09       26.04       25.99       25.93    
        25.87       25.81       25.75       25.69       25.64       25.58       25.53       25.48       25.44       25.43    
        25.41       25.39       25.37       25.34       25.32       25.29       25.27       25.25       25.23       25.21    
        25.18       25.16       25.14       25.12       25.10       25.08       25.06       25.04       25.02       25.00    
  25    26.07       26.06       26.04       26.02       26.00       25.96       25.93       25.88       25.84       25.79    
        25.74       25.69       25.64       25.59       25.54       25.50       25.46       25.42       25.41       25.39    
        25.38       25.36       25.34       25.32       25.30       25.28       25.25       25.23       25.21       25.19    
        25.17       25.15       25.13       25.11       25.09       25.08       25.06       25.04       25.02       25.00    
  26    25.90       25.89       25.88       25.86       25.84       25.81       25.78       25.75       25.71       25.67    
        25.63       25.59       25.54       25.50       25.46       25.42       25.41       25.39       25.38       25.36    
        25.35       25.33       25.31       25.29       25.28       25.26       25.24       25.22       25.20       25.18    
        25.16       25.14       25.12       25.11       25.09       25.07       25.05       25.04       25.02       25.00    
  27    25.75       25.74       25.74       25.72       25.70       25.68       25.66       25.63       25.59       25.56    
        25.52       25.49       25.46       25.42       25.39       25.38       25.37       25.36       25.35       25.33    
        25.32       25.30       25.29       25.27       25.25       25.24       25.22       25.20       25.18       25.17    
        25.15       25.13       25.12       25.10       25.08       25.07       25.05       25.03       25.02       25.00    
  28    25.62       25.61       25.61       25.60       25.59       25.57       25.55       25.52       25.49       25.46    
        25.42       25.41       25.40       25.38       25.36       25.35       25.34       25.33       25.32       25.31    
        25.29       25.28       25.26       25.25       25.23       25.22       25.20       25.19       25.17       25.15    
        25.14       25.12       25.11       25.09       25.08       25.06       25.05       25.03       25.02       25.00    
  29    25.50       25.50       25.49       25.49       25.48       25.48       25.46       25.42       25.40       25.38    
        25.37       25.37       25.36       25.35       25.33       25.32       25.31       25.30       25.29       25.28    
        25.27       25.25       25.24       25.23       25.21       25.20       25.18       25.17       25.16       25.14    
        25.13       25.11       25.10       25.08       25.07       25.06       25.04       25.03       25.01       25.00    
  30    25.39       25.39       25.39       25.39       25.39       25.40       25.39       25.37       25.36       25.35    
        25.34       25.33       25.32       25.31       25.30       25.29       25.28       25.27       25.26       25.25    
        25.24       25.23       25.22       25.21       25.19       25.18       25.17       25.15       25.14       25.13    
        25.12       25.10       25.09       25.08       25.06       25.05       25.04       25.03       25.01       25.00    
  31    25.34       25.34       25.34       25.34       25.34       25.35       25.34       25.33       25.32       25.31    
        25.31       25.30       25.29       25.28       25.27       25.26       25.25       25.25       25.24       25.23    
        25.22       25.21       25.19       25.18       25.17       25.16       25.15       25.14       25.13       25.12    
        25.10       25.09       25.08       25.07       25.06       25.05       25.03       25.02       25.01       25.00    
  32    25.30       25.30       25.30       25.30       25.30       25.30       25.30       25.29       25.29       25.28    
        25.27       25.26       25.26       25.25       25.24       25.23       25.23       25.22       25.21       25.20    
        25.19       25.18       25.17       25.16       25.15       25.14       25.13       25.12       25.11       25.10    
        25.09       25.08       25.07       25.06       25.05       25.04       25.03       25.02       25.01       25.00    
  33    25.27       25.27       25.27       25.26       25.26       25.26       25.26       25.25       25.25       25.24    
        25.24       25.23       25.22       25.22       25.21       25.20       25.20       25.19       25.18       25.17    
        25.17       25.16       25.15       25.14       25.13       25.12       25.12       25.11       25.10       25.09    
        25.08       25.07       25.06       25.05       25.04       25.04       25.03       25.02       25.01       25.00    
  34    25.23       25.23       25.23       25.23       25.23       25.22       25.22       25.22       25.21       25.21    
        25.20       25.20       25.19       25.19       25.18       25.17       25.17       25.16       25.16       25.15    
        25.14       25.14       25.13       25.12       25.11       25.11       25.10       25.09       25.08       25.08    
        25.07       25.06       25.05       25.05       25.04       25.03       25.02       25.02       25.01       25.00    
  35    25.19       25.19       25.19       25.19       25.19       25.19       25.18       25.18       25.18       25.17    
        25.17       25.16       25.16       25.15       25.15       25.15       25.14       25.13       25.13       25.12    
        25.12       25.11       25.11       25.10       25.09       25.09       25.08       25.08       25.07       25.06    
        25.06       25.05       25.04       25.04       25.03       25.03       25.02       25.01       25.01       25.00    
  36    25.15       25.15       25.15       25.15       25.15       25.15       25.15       25.14       25.14       25.14    
        25.13       25.13       25.13       25.12       25.12       25.12       25.11       25.11       25.10       25.10    
        25.09       25.09       25.09       25.08       25.08       25.07       25.07       25.06       25.06       25.05    
        25.05       25.04       25.04       25.03       25.03       25.02       25.02       25.01       25.01       25.00    
  37    25.11       25.11       25.11       25.11       25.11       25.11       25.11       25.11       25.11       25.10    
        25.10       25.10       25.10       25.09       25.09       25.09       25.08       25.08       25.08       25.07    
        25.07       25.07       25.06       25.06       25.06       25.05       25.05       25.05       25.04       25.04    
        25.03       25.03       25.03       25.02       25.02       25.02       25.01       25.01       25.00       25.00    
  38    25.08       25.08       25.08       25.07       25.07       25.07       25.07       25.07       25.07       25.07    
        25.07       25.07       25.06       25.06       25.06       25.06       25.06       25.05       25.05       25.05    
        25.05       25.04       25.04       25.04       25.04       25.04       25.03       25.03       25.03       25.03    
        25.02       25.02       25.02       25.02       25.01       25.01       25.01       25.01       25.00       25.00    
  39    25.04       25.04       25.04       25.04       25.04       25.04       25.04       25.04       25.04       25.03    
        25.03       25.03       25.03       25.03       25.03       25.03       25.03       25.03       25.03       25.02    
        25.02       25.02       25.02       25.02       25.02       25.02       25.02       25.02       25.01       25.01    
        25.01       25.01       25.01       25.01       25.01       25.01       25.00       25.00       25.00       25.00    
  40    25.00       25.00       25.00       25.00       25.00       25.00       25.00       25.00       25.00       25.00    
        25.00       25.00       25.00       25.00       25.00       25.00       25.00       25.00       25.00       25.00    
        25.00       25.00       25.00       25.00       25.00       25.00       25.00       25.00       25.00       25.00    
        25.00       25.00       25.00       25.00       25.00       25.00       25.00       25.00       25.00       25.00    
1
  VOLUMETRIC BUDGET FOR ENTIRE MODEL AT END OF TIME STEP 17 IN STRESS PERIOD   3
  ------------------------------------------------------------------------------

     CUMULATIVE VOLUMES      L**3       RATES FOR THIS TIME STEP      L**3/T
     ------------------                 ------------------------

           IN:                                      IN:
           ---                                      ---
             STORAGE =       29521.0059               STORAGE =           3.0613
       CONSTANT HEAD =           0.1397         CONSTANT HEAD =           0.0000
            RECHARGE =     8218751.5000              RECHARGE =        3125.0000

            TOTAL IN =     8248272.5000              TOTAL IN =        3128.0613

          OUT:                                     OUT:
          ----                                     ----
             STORAGE =     7955385.5000               STORAGE =        2903.6985
       CONSTANT HEAD =      292896.8125         CONSTANT HEAD =         224.3712
            RECHARGE =           0.0000              RECHARGE =           0.0000

           TOTAL OUT =     8248282.5000             TOTAL OUT =        3128.0696

            IN - OUT =         -10.0000              IN - OUT =      -8.3008E-03

 PERCENT DISCREPANCY =           0.00     PERCENT DISCREPANCY =           0.00






          TIME SUMMARY AT END OF TIME STEP  17 IN STRESS PERIOD    3
                    SECONDS     MINUTES      HOURS       DAYS        YEARS
                    -----------------------------------------------------------
   TIME STEP LENGTH 9.76828E+06 1.62805E+05  2713.4      113.06     0.30954    
 STRESS PERIOD TIME 1.66061E+08 2.76768E+06  46128.      1922.0      5.2621    
         TOTAL TIME 2.27232E+08 3.78720E+06  63120.      2630.0      7.2005    
1

 Run end date and time (yyyy/mm/dd hh:mm:ss): 2011/10/03  9:19:05
 Elapsed run time:  1.240 Seconds

