                                  MODFLOW-NWT-SWR1 
      U.S. GEOLOGICAL SURVEY MODULAR FINITE-DIFFERENCE GROUNDWATER-FLOW MODEL
                            VERSION 1.0.7 01/15/2013
                    BASED ON MODFLOW-2005 VERSION 1.9.01 05/01/2012

 LIST FILE: Results\SWRSample03.lst
                         UNIT    7

 OPENING SWRSample03.bas
 FILE TYPE:BAS6   UNIT    1   STATUS:OLD    
 FORMAT:FORMATTED              ACCESS:SEQUENTIAL          

 OPENING SWRSample03.dis
 FILE TYPE:DIS   UNIT   29   STATUS:OLD    
 FORMAT:FORMATTED              ACCESS:SEQUENTIAL          

 OPENING SWRSample03.lpf
 FILE TYPE:LPF   UNIT   11   STATUS:OLD    
 FORMAT:FORMATTED              ACCESS:SEQUENTIAL          

 OPENING SWRSample03.oc
 FILE TYPE:OC   UNIT   22   STATUS:OLD    
 FORMAT:FORMATTED              ACCESS:SEQUENTIAL          

 OPENING SWRSample03.pcg
 FILE TYPE:PCG   UNIT   19   STATUS:OLD    
 FORMAT:FORMATTED              ACCESS:SEQUENTIAL          

 OPENING SWRSample03.swr
 FILE TYPE:SWR   UNIT   61   STATUS:OLD    
 FORMAT:FORMATTED              ACCESS:SEQUENTIAL          

 OPENING Results\SWRSample03_Stage.stg
 FILE TYPE:DATA(BINARY)   UNIT  102   STATUS:UNKNOWN
 FORMAT:BINARY                 ACCESS:SEQUENTIAL          

 BAS -- BASIC PACKAGE, VERSION 7, 5/2/2005 INPUT READ FROM UNIT    1
 
 MODFLOW was compiled using mixed precision
 Precision of REAL variables:           6
 Precision of DOUBLE PRECISION variables:          15

 DISCRETIZATION INPUT DATA READ FROM UNIT   29
 # MODFLOW2000 Discretization File
    1 LAYERS        11 ROWS        11 COLUMNS
   25 STRESS PERIOD(S) IN SIMULATION
 MODEL TIME UNIT IS SECONDS
 MODEL LENGTH UNIT IS METERS
  Confining bed flag for each layer:
   0

                     DELR =   500.000    

                     DELC =   500.000    



           TOP ELEVATION OF LAYER 1
 READING ON UNIT   29 WITH FORMAT: (11e6.2)            

   MODEL LAYER BOTTOM EL. =  -5.00000     FOR LAYER   1


 STRESS PERIOD     LENGTH       TIME STEPS     MULTIPLIER FOR DELT    SS FLAG
 ----------------------------------------------------------------------------
        1         3600.000         30                    1.000         TR
        2         3600.000         30                    1.000         TR
        3         3600.000         30                    1.000         TR
        4         3600.000         30                    1.000         TR
        5         3600.000         30                    1.000         TR
        6         3600.000         30                    1.000         TR
        7         3600.000         30                    1.000         TR
        8         3600.000         30                    1.000         TR
        9         3600.000         30                    1.000         TR
       10         3600.000         30                    1.000         TR
       11         3600.000         30                    1.000         TR
       12         3600.000         30                    1.000         TR
       13         3600.000         30                    1.000         TR
       14         3600.000         30                    1.000         TR
       15         3600.000         30                    1.000         TR
       16         3600.000         30                    1.000         TR
       17         3600.000         30                    1.000         TR
       18         3600.000         30                    1.000         TR
       19         3600.000         30                    1.000         TR
       20         3600.000         30                    1.000         TR
       21         3600.000         30                    1.000         TR
       22         3600.000         30                    1.000         TR
       23         3600.000         30                    1.000         TR
       24         3600.000         30                    1.000         TR
       25         518400.0       4320                    1.000         TR

 TRANSIENT SIMULATION



 
 # MODFLOW2005 Basic Package                                                     
 #MODFLOW Data Set Created by Groundwater Vistas                                 
 #

           BOUNDARY ARRAY =              1 FOR LAYER   1

 AQUIFER HEAD WILL BE SET TO   999.00     AT ALL NO-FLOW NODES (IBOUND=0).

             INITIAL HEAD =   0.00000     FOR LAYER   1

 OUTPUT CONTROL IS SPECIFIED ONLY AT TIME STEPS FOR WHICH OUTPUT IS DESIRED
 HEAD PRINT FORMAT CODE IS   0    DRAWDOWN PRINT FORMAT CODE IS   0
 HEADS WILL BE SAVED ON UNIT    0    DRAWDOWNS WILL BE SAVED ON UNIT    0

 LPF -- LAYER-PROPERTY FLOW PACKAGE, VERSION 7, 5/2/2005
         INPUT READ FROM UNIT   11
 # MODFLOW2000 Layer Property Flow (LPF) Package
 HEAD AT CELLS THAT CONVERT TO DRY= -1.00000E+30
 No named parameters

   LAYER FLAGS:
 LAYER       LAYTYP        LAYAVG         CHANI        LAYVKA        LAYWET
 ---------------------------------------------------------------------------
    1             1             0     1.000E+00             0             0

   INTERPRETATION OF LAYER FLAGS:
                        INTERBLOCK     HORIZONTAL    DATA IN
         LAYER TYPE   TRANSMISSIVITY   ANISOTROPY   ARRAY VKA   WETTABILITY
 LAYER      (LAYTYP)      (LAYAVG)       (CHANI)      (LAYVKA)      (LAYWET)
 ---------------------------------------------------------------------------
    1   CONVERTIBLE      HARMONIC     1.000E+00    VERTICAL K  NON-WETTABLE

 WETTING CAPABILITY IS NOT ACTIVE IN ANY LAYER

    HYD. COND. ALONG ROWS =   5.00000     FOR LAYER   1

      VERTICAL HYD. COND. =   5.00000     FOR LAYER   1

         SPECIFIC STORAGE =   1.00000     FOR LAYER   1

           SPECIFIC YIELD =  0.200000     FOR LAYER   1

 PCG -- CONJUGATE-GRADIENT SOLUTION PACKAGE, VERSION 7, 5/2/2005
 MAXIMUM OF    100 CALLS OF SOLUTION ROUTINE
 MAXIMUM OF     25 INTERNAL ITERATIONS PER CALL TO SOLUTION ROUTINE
 MATRIX PRECONDITIONING TYPE :    1
 IHCOFADD option -- When an active cell is surrounded by dry cells, convert
 the cell to dry only if storage and head-dependent boundary flow are 0.



                                    SOLUTION BY THE CONJUGATE-GRADIENT METHOD
                                   -------------------------------------------
                    MAXIMUM NUMBER OF CALLS TO PCG ROUTINE =      100
                        MAXIMUM ITERATIONS PER CALL TO PCG =       25
                               MATRIX PRECONDITIONING TYPE =        1
        RELAXATION FACTOR (ONLY USED WITH PRECOND. TYPE 1) =    0.10000E+01
 PARAMETER OF POLYNOMIAL PRECOND. = 2 (2) OR IS CALCULATED :        2
                         HEAD CHANGE CRITERION FOR CLOSURE =    0.10000E-02
                     RESIDUAL CHANGE CRITERION FOR CLOSURE =    0.10000E+01
            PCG HEAD AND RESIDUAL CHANGE PRINTOUT INTERVAL =        5
     PRINTING FROM SOLVER IS LIMITED(1) OR SUPPRESSED (>1) =        0
                            STEADY-STATE DAMPING PARAMETER =    0.10000E+01
                               TRANSIENT DAMPING PARAMETER =    0.10000E+01

 SWR -- SURFACE-WATER ROUTING PACKAGE,
 $Id: gwf2swr7.f 1.02 2013-01-17 15:00:00Z jdhughes $            
 INPUT READ FROM UNIT   61

 ...READING SWR1 PROCESS DATASET 1A
 SWR1 OPTIONS SPECIFIED IN DATASET 1B

 ...READING SWR1 PROCESS DATASET 1B
 UNRECOGNIZED SWR1 OPTION: XRINT_SWR_TO_SCREEN
 UNRECOGNIZED SWR1 OPTION: XSE_NONCONVERGENCE_CONTINUE

 ...READING SWR1 PROCESS DATASET 2

 ...READING SWR1 PROCESS DATASET 3

 NUMBER OF REACHES                         =  121
 SURFACE WATER ONLY SIMULATION (>0=TRUE)   =    1
 LENGTH CONVERSION FACTOR                  =   1.000000    
 TIME CONVERSION FACTOR                    =   1.000000    
 MINIMUM GRADIENT FOR FLOW                 =   0.000000    
 MAXIMUM DEPTH FOR SCALING REACH OUTFLOW   =  0.1000000    
 MINIMUM DEPTH FOR REACH OUTFLOW           =  0.1000000E-01
 DIFFUSIVE-WAVE APPROX. SPATIAL WEIGHTING  = CENTRAL             
 DEPTH SCALING                             = SIGMOID             
 TWO-DIMENSIONAL COORD.-INVARIANT APPROACH = EXPLICIT            
 MINIMUM ROUTING TIME STEP LENGTH          =   120.0000    
 MAXIMUM ROUTING TIME STEP LENGTH          =   120.0000    
 INITIAL ROUTING TIME STEP LENGTH          =   120.0000    
 OUTPUT PRINT INCREMENT                    =   120.0000    
 ADAPTIVE TIME STEP INCREMENT (RTMULT)     =   1.000000    
 ADAPTIVE TIME STEP INCREMENT FREQUENCY    =    1
 MAXIMUM RAINFALL      PER ROUTING STEP    =   0.000000    
 MAXIMUM STAGE  CHANGE PER ROUTING STEP    =   0.000000    
 MAXIMUM INFLOW CHANGE PER ROUTING STEP    =   0.000000    

 CBC OUTPUT UNIT (ISWRCBC)                 =    0
 GROUP FLOW TERMS OUTPUT UNIT (ISWRPRGF)   =    0
 REACH STAGE OUTPUT UNIT (ISWRPSTG)        = -102
 REACH AQ-RCH FLOW OUTPUT UNIT (ISWRPQAQ)  =    0
 REACH LATERAL FLOW OUTPUT UNIT (ISWRPQM)  =    0
 STRUCTURE FLOW OUTPUT UNIT (ISWRPSTR)     =    0
 SUMMARY VELOCITY AND FROUDE INFORMATION   =    F


               --- SWR SOLVER PARAMETERS ---
 SOLVER = BICONJUGATE GRADIENT STABILIZED         
 PRECONDITIONER                            = MOD. INCOMPLETE LU  
 JACOBIAN SCALING                          = NO SCALING          
 MAXIMUM NUMBER OF OUTER ITERATIONS        =   51
 MAXIMUM NUMBER OF INNER ITERATIONS        =  100
 NON-CONVERGENCE CONT.OF SWR AND MODFLOW   =    F
 MAXIMUM STAGE    TOLERANCE (TOLS)         =  0.1000000E-08
 MAXIMUM ROOT     TOLERANCE (TOLR)         =  0.1000000E-01
 INEXACT NEWTON APPROACH (INEXCTNWT)       =    F
 MAXIMUM AQ-RCH FLOW TOLERANCE (TOLA)      =  0.0000000E+00
 STEADY-STATE DAMPENING PARAMETER (DAMPSS) =  0.1000000E+01
 TRANSIENT DAMPENING PARAMETER (DAMPTR)    =  0.1000000E+01
 PSEUDO-TRANSIENT CONTINUATION APPROACH    =    F
 SOLVER OUTPUT FREQUENCY (IPRSWR)          =  999
 CONVERGENCE PRINTING FLAG (MUTSWR)        =    3
   0 - MAXIMUM RESIDUAL EACH SWR TIMESTEP
   1 - TOTAL NUMBER OF ITERATIONS EACH SWR TIMESTEP
   2 - NO PRINTING
   3 - PRINTING IF CONVERGENCE FAILS
 BACKTRACKING ALLOWED                      =    T
 MAXIMUM BACKTRACKING ITERATIONS (IBT)     =   10
 BACKTRACKING OUTPUT FREQUENCY  (IBTPRT)   =    1


 SURFACE WATER ONLY SIMULATION
 SETTING MODFLOW IBOUND TO ZERO FOR ALL CELLS

 ...READING SWR1 PROCESS DATASET 4A

 ...READING SWR1 PROCESS DATASET 4B

 -----------------------------------------------------------
 FULL REACH CONNECTIVITY FOR EACH REACH

 -----------------------------------------------------------
 REACH  =     1
               -----------------CONNECTIONS-----------------
                            1              2
 -----------------------------------------------------------
 REACHES           1 TO     2     1 TO    12
 -----------------------------------------------------------

 -----------------------------------------------------------
 REACH  =     2
               -----------------CONNECTIONS-----------------
                            1              2              3
 -----------------------------------------------------------
 REACHES           2 TO     1     2 TO     3     2 TO    13
 -----------------------------------------------------------

 -----------------------------------------------------------
 REACH  =     3
               -----------------CONNECTIONS-----------------
                            1              2              3
 -----------------------------------------------------------
 REACHES           3 TO     2     3 TO     4     3 TO    14
 -----------------------------------------------------------

 -----------------------------------------------------------
 REACH  =     4
               -----------------CONNECTIONS-----------------
                            1              2              3
 -----------------------------------------------------------
 REACHES           4 TO     3     4 TO     5     4 TO    15
 -----------------------------------------------------------

 -----------------------------------------------------------
 REACH  =     5
               -----------------CONNECTIONS-----------------
                            1              2              3
 -----------------------------------------------------------
 REACHES           5 TO     4     5 TO     6     5 TO    16
 -----------------------------------------------------------

 -----------------------------------------------------------
 REACH  =     6
               -----------------CONNECTIONS-----------------
                            1              2              3
 -----------------------------------------------------------
 REACHES           6 TO     5     6 TO     7     6 TO    17
 -----------------------------------------------------------

 -----------------------------------------------------------
 REACH  =     7
               -----------------CONNECTIONS-----------------
                            1              2              3
 -----------------------------------------------------------
 REACHES           7 TO     6     7 TO     8     7 TO    18
 -----------------------------------------------------------

 -----------------------------------------------------------
 REACH  =     8
               -----------------CONNECTIONS-----------------
                            1              2              3
 -----------------------------------------------------------
 REACHES           8 TO     7     8 TO     9     8 TO    19
 -----------------------------------------------------------

 -----------------------------------------------------------
 REACH  =     9
               -----------------CONNECTIONS-----------------
                            1              2              3
 -----------------------------------------------------------
 REACHES           9 TO     8     9 TO    10     9 TO    20
 -----------------------------------------------------------

 -----------------------------------------------------------
 REACH  =    10
               -----------------CONNECTIONS-----------------
                            1              2              3
 -----------------------------------------------------------
 REACHES          10 TO     9    10 TO    11    10 TO    21
 -----------------------------------------------------------

 -----------------------------------------------------------
 REACH  =    11
               -----------------CONNECTIONS-----------------
                            1              2
 -----------------------------------------------------------
 REACHES          11 TO    10    11 TO    22
 -----------------------------------------------------------

 -----------------------------------------------------------
 REACH  =    12
               -----------------CONNECTIONS-----------------
                            1              2              3
 -----------------------------------------------------------
 REACHES          12 TO     1    12 TO    13    12 TO    23
 -----------------------------------------------------------

 -----------------------------------------------------------
 REACH  =    13
               -----------------CONNECTIONS-----------------
                            1              2              3
                            4
 -----------------------------------------------------------
 REACHES          13 TO     2    13 TO    12    13 TO    14
                  13 TO    24
 -----------------------------------------------------------

 -----------------------------------------------------------
 REACH  =    14
               -----------------CONNECTIONS-----------------
                            1              2              3
                            4
 -----------------------------------------------------------
 REACHES          14 TO     3    14 TO    13    14 TO    15
                  14 TO    25
 -----------------------------------------------------------

 -----------------------------------------------------------
 REACH  =    15
               -----------------CONNECTIONS-----------------
                            1              2              3
                            4
 -----------------------------------------------------------
 REACHES          15 TO     4    15 TO    14    15 TO    16
                  15 TO    26
 -----------------------------------------------------------

 -----------------------------------------------------------
 REACH  =    16
               -----------------CONNECTIONS-----------------
                            1              2              3
                            4
 -----------------------------------------------------------
 REACHES          16 TO     5    16 TO    15    16 TO    17
                  16 TO    27
 -----------------------------------------------------------

 -----------------------------------------------------------
 REACH  =    17
               -----------------CONNECTIONS-----------------
                            1              2              3
                            4
 -----------------------------------------------------------
 REACHES          17 TO     6    17 TO    16    17 TO    18
                  17 TO    28
 -----------------------------------------------------------

 -----------------------------------------------------------
 REACH  =    18
               -----------------CONNECTIONS-----------------
                            1              2              3
                            4
 -----------------------------------------------------------
 REACHES          18 TO     7    18 TO    17    18 TO    19
                  18 TO    29
 -----------------------------------------------------------

 -----------------------------------------------------------
 REACH  =    19
               -----------------CONNECTIONS-----------------
                            1              2              3
                            4
 -----------------------------------------------------------
 REACHES          19 TO     8    19 TO    18    19 TO    20
                  19 TO    30
 -----------------------------------------------------------

 -----------------------------------------------------------
 REACH  =    20
               -----------------CONNECTIONS-----------------
                            1              2              3
                            4
 -----------------------------------------------------------
 REACHES          20 TO     9    20 TO    19    20 TO    21
                  20 TO    31
 -----------------------------------------------------------

 -----------------------------------------------------------
 REACH  =    21
               -----------------CONNECTIONS-----------------
                            1              2              3
                            4
 -----------------------------------------------------------
 REACHES          21 TO    10    21 TO    20    21 TO    22
                  21 TO    32
 -----------------------------------------------------------

 -----------------------------------------------------------
 REACH  =    22
               -----------------CONNECTIONS-----------------
                            1              2              3
 -----------------------------------------------------------
 REACHES          22 TO    11    22 TO    21    22 TO    33
 -----------------------------------------------------------

 -----------------------------------------------------------
 REACH  =    23
               -----------------CONNECTIONS-----------------
                            1              2              3
 -----------------------------------------------------------
 REACHES          23 TO    12    23 TO    24    23 TO    34
 -----------------------------------------------------------

 -----------------------------------------------------------
 REACH  =    24
               -----------------CONNECTIONS-----------------
                            1              2              3
                            4
 -----------------------------------------------------------
 REACHES          24 TO    13    24 TO    23    24 TO    25
                  24 TO    35
 -----------------------------------------------------------

 -----------------------------------------------------------
 REACH  =    25
               -----------------CONNECTIONS-----------------
                            1              2              3
                            4
 -----------------------------------------------------------
 REACHES          25 TO    14    25 TO    24    25 TO    26
                  25 TO    36
 -----------------------------------------------------------

 -----------------------------------------------------------
 REACH  =    26
               -----------------CONNECTIONS-----------------
                            1              2              3
                            4
 -----------------------------------------------------------
 REACHES          26 TO    15    26 TO    25    26 TO    27
                  26 TO    37
 -----------------------------------------------------------

 -----------------------------------------------------------
 REACH  =    27
               -----------------CONNECTIONS-----------------
                            1              2              3
                            4
 -----------------------------------------------------------
 REACHES          27 TO    16    27 TO    26    27 TO    28
                  27 TO    38
 -----------------------------------------------------------

 -----------------------------------------------------------
 REACH  =    28
               -----------------CONNECTIONS-----------------
                            1              2              3
                            4
 -----------------------------------------------------------
 REACHES          28 TO    17    28 TO    27    28 TO    29
                  28 TO    39
 -----------------------------------------------------------

 -----------------------------------------------------------
 REACH  =    29
               -----------------CONNECTIONS-----------------
                            1              2              3
                            4
 -----------------------------------------------------------
 REACHES          29 TO    18    29 TO    28    29 TO    30
                  29 TO    40
 -----------------------------------------------------------

 -----------------------------------------------------------
 REACH  =    30
               -----------------CONNECTIONS-----------------
                            1              2              3
                            4
 -----------------------------------------------------------
 REACHES          30 TO    19    30 TO    29    30 TO    31
                  30 TO    41
 -----------------------------------------------------------

 -----------------------------------------------------------
 REACH  =    31
               -----------------CONNECTIONS-----------------
                            1              2              3
                            4
 -----------------------------------------------------------
 REACHES          31 TO    20    31 TO    30    31 TO    32
                  31 TO    42
 -----------------------------------------------------------

 -----------------------------------------------------------
 REACH  =    32
               -----------------CONNECTIONS-----------------
                            1              2              3
                            4
 -----------------------------------------------------------
 REACHES          32 TO    21    32 TO    31    32 TO    33
                  32 TO    43
 -----------------------------------------------------------

 -----------------------------------------------------------
 REACH  =    33
               -----------------CONNECTIONS-----------------
                            1              2              3
 -----------------------------------------------------------
 REACHES          33 TO    22    33 TO    32    33 TO    44
 -----------------------------------------------------------

 -----------------------------------------------------------
 REACH  =    34
               -----------------CONNECTIONS-----------------
                            1              2              3
 -----------------------------------------------------------
 REACHES          34 TO    23    34 TO    35    34 TO    45
 -----------------------------------------------------------

 -----------------------------------------------------------
 REACH  =    35
               -----------------CONNECTIONS-----------------
                            1              2              3
                            4
 -----------------------------------------------------------
 REACHES          35 TO    24    35 TO    34    35 TO    36
                  35 TO    46
 -----------------------------------------------------------

 -----------------------------------------------------------
 REACH  =    36
               -----------------CONNECTIONS-----------------
                            1              2              3
                            4
 -----------------------------------------------------------
 REACHES          36 TO    25    36 TO    35    36 TO    37
                  36 TO    47
 -----------------------------------------------------------

 -----------------------------------------------------------
 REACH  =    37
               -----------------CONNECTIONS-----------------
                            1              2              3
                            4
 -----------------------------------------------------------
 REACHES          37 TO    26    37 TO    36    37 TO    38
                  37 TO    48
 -----------------------------------------------------------

 -----------------------------------------------------------
 REACH  =    38
               -----------------CONNECTIONS-----------------
                            1              2              3
                            4
 -----------------------------------------------------------
 REACHES          38 TO    27    38 TO    37    38 TO    39
                  38 TO    49
 -----------------------------------------------------------

 -----------------------------------------------------------
 REACH  =    39
               -----------------CONNECTIONS-----------------
                            1              2              3
                            4
 -----------------------------------------------------------
 REACHES          39 TO    28    39 TO    38    39 TO    40
                  39 TO    50
 -----------------------------------------------------------

 -----------------------------------------------------------
 REACH  =    40
               -----------------CONNECTIONS-----------------
                            1              2              3
                            4
 -----------------------------------------------------------
 REACHES          40 TO    29    40 TO    39    40 TO    41
                  40 TO    51
 -----------------------------------------------------------

 -----------------------------------------------------------
 REACH  =    41
               -----------------CONNECTIONS-----------------
                            1              2              3
                            4
 -----------------------------------------------------------
 REACHES          41 TO    30    41 TO    40    41 TO    42
                  41 TO    52
 -----------------------------------------------------------

 -----------------------------------------------------------
 REACH  =    42
               -----------------CONNECTIONS-----------------
                            1              2              3
                            4
 -----------------------------------------------------------
 REACHES          42 TO    31    42 TO    41    42 TO    43
                  42 TO    53
 -----------------------------------------------------------

 -----------------------------------------------------------
 REACH  =    43
               -----------------CONNECTIONS-----------------
                            1              2              3
                            4
 -----------------------------------------------------------
 REACHES          43 TO    32    43 TO    42    43 TO    44
                  43 TO    54
 -----------------------------------------------------------

 -----------------------------------------------------------
 REACH  =    44
               -----------------CONNECTIONS-----------------
                            1              2              3
 -----------------------------------------------------------
 REACHES          44 TO    33    44 TO    43    44 TO    55
 -----------------------------------------------------------

 -----------------------------------------------------------
 REACH  =    45
               -----------------CONNECTIONS-----------------
                            1              2              3
 -----------------------------------------------------------
 REACHES          45 TO    34    45 TO    46    45 TO    56
 -----------------------------------------------------------

 -----------------------------------------------------------
 REACH  =    46
               -----------------CONNECTIONS-----------------
                            1              2              3
                            4
 -----------------------------------------------------------
 REACHES          46 TO    35    46 TO    45    46 TO    47
                  46 TO    57
 -----------------------------------------------------------

 -----------------------------------------------------------
 REACH  =    47
               -----------------CONNECTIONS-----------------
                            1              2              3
                            4
 -----------------------------------------------------------
 REACHES          47 TO    36    47 TO    46    47 TO    48
                  47 TO    58
 -----------------------------------------------------------

 -----------------------------------------------------------
 REACH  =    48
               -----------------CONNECTIONS-----------------
                            1              2              3
                            4
 -----------------------------------------------------------
 REACHES          48 TO    37    48 TO    47    48 TO    49
                  48 TO    59
 -----------------------------------------------------------

 -----------------------------------------------------------
 REACH  =    49
               -----------------CONNECTIONS-----------------
                            1              2              3
                            4
 -----------------------------------------------------------
 REACHES          49 TO    38    49 TO    48    49 TO    50
                  49 TO    60
 -----------------------------------------------------------

 -----------------------------------------------------------
 REACH  =    50
               -----------------CONNECTIONS-----------------
                            1              2              3
                            4
 -----------------------------------------------------------
 REACHES          50 TO    39    50 TO    49    50 TO    51
                  50 TO    61
 -----------------------------------------------------------

 -----------------------------------------------------------
 REACH  =    51
               -----------------CONNECTIONS-----------------
                            1              2              3
                            4
 -----------------------------------------------------------
 REACHES          51 TO    40    51 TO    50    51 TO    52
                  51 TO    62
 -----------------------------------------------------------

 -----------------------------------------------------------
 REACH  =    52
               -----------------CONNECTIONS-----------------
                            1              2              3
                            4
 -----------------------------------------------------------
 REACHES          52 TO    41    52 TO    51    52 TO    53
                  52 TO    63
 -----------------------------------------------------------

 -----------------------------------------------------------
 REACH  =    53
               -----------------CONNECTIONS-----------------
                            1              2              3
                            4
 -----------------------------------------------------------
 REACHES          53 TO    42    53 TO    52    53 TO    54
                  53 TO    64
 -----------------------------------------------------------

 -----------------------------------------------------------
 REACH  =    54
               -----------------CONNECTIONS-----------------
                            1              2              3
                            4
 -----------------------------------------------------------
 REACHES          54 TO    43    54 TO    53    54 TO    55
                  54 TO    65
 -----------------------------------------------------------

 -----------------------------------------------------------
 REACH  =    55
               -----------------CONNECTIONS-----------------
                            1              2              3
 -----------------------------------------------------------
 REACHES          55 TO    44    55 TO    54    55 TO    66
 -----------------------------------------------------------

 -----------------------------------------------------------
 REACH  =    56
               -----------------CONNECTIONS-----------------
                            1              2              3
 -----------------------------------------------------------
 REACHES          56 TO    45    56 TO    57    56 TO    67
 -----------------------------------------------------------

 -----------------------------------------------------------
 REACH  =    57
               -----------------CONNECTIONS-----------------
                            1              2              3
                            4
 -----------------------------------------------------------
 REACHES          57 TO    46    57 TO    56    57 TO    58
                  57 TO    68
 -----------------------------------------------------------

 -----------------------------------------------------------
 REACH  =    58
               -----------------CONNECTIONS-----------------
                            1              2              3
                            4
 -----------------------------------------------------------
 REACHES          58 TO    47    58 TO    57    58 TO    59
                  58 TO    69
 -----------------------------------------------------------

 -----------------------------------------------------------
 REACH  =    59
               -----------------CONNECTIONS-----------------
                            1              2              3
                            4
 -----------------------------------------------------------
 REACHES          59 TO    48    59 TO    58    59 TO    60
                  59 TO    70
 -----------------------------------------------------------

 -----------------------------------------------------------
 REACH  =    60
               -----------------CONNECTIONS-----------------
                            1              2              3
                            4
 -----------------------------------------------------------
 REACHES          60 TO    49    60 TO    59    60 TO    61
                  60 TO    71
 -----------------------------------------------------------

 -----------------------------------------------------------
 REACH  =    61
               -----------------CONNECTIONS-----------------
                            1              2              3
                            4
 -----------------------------------------------------------
 REACHES          61 TO    50    61 TO    60    61 TO    62
                  61 TO    72
 -----------------------------------------------------------

 -----------------------------------------------------------
 REACH  =    62
               -----------------CONNECTIONS-----------------
                            1              2              3
                            4
 -----------------------------------------------------------
 REACHES          62 TO    51    62 TO    61    62 TO    63
                  62 TO    73
 -----------------------------------------------------------

 -----------------------------------------------------------
 REACH  =    63
               -----------------CONNECTIONS-----------------
                            1              2              3
                            4
 -----------------------------------------------------------
 REACHES          63 TO    52    63 TO    62    63 TO    64
                  63 TO    74
 -----------------------------------------------------------

 -----------------------------------------------------------
 REACH  =    64
               -----------------CONNECTIONS-----------------
                            1              2              3
                            4
 -----------------------------------------------------------
 REACHES          64 TO    53    64 TO    63    64 TO    65
                  64 TO    75
 -----------------------------------------------------------

 -----------------------------------------------------------
 REACH  =    65
               -----------------CONNECTIONS-----------------
                            1              2              3
                            4
 -----------------------------------------------------------
 REACHES          65 TO    54    65 TO    64    65 TO    66
                  65 TO    76
 -----------------------------------------------------------

 -----------------------------------------------------------
 REACH  =    66
               -----------------CONNECTIONS-----------------
                            1              2              3
 -----------------------------------------------------------
 REACHES          66 TO    55    66 TO    65    66 TO    77
 -----------------------------------------------------------

 -----------------------------------------------------------
 REACH  =    67
               -----------------CONNECTIONS-----------------
                            1              2              3
 -----------------------------------------------------------
 REACHES          67 TO    56    67 TO    68    67 TO    78
 -----------------------------------------------------------

 -----------------------------------------------------------
 REACH  =    68
               -----------------CONNECTIONS-----------------
                            1              2              3
                            4
 -----------------------------------------------------------
 REACHES          68 TO    57    68 TO    67    68 TO    69
                  68 TO    79
 -----------------------------------------------------------

 -----------------------------------------------------------
 REACH  =    69
               -----------------CONNECTIONS-----------------
                            1              2              3
                            4
 -----------------------------------------------------------
 REACHES          69 TO    58    69 TO    68    69 TO    70
                  69 TO    80
 -----------------------------------------------------------

 -----------------------------------------------------------
 REACH  =    70
               -----------------CONNECTIONS-----------------
                            1              2              3
                            4
 -----------------------------------------------------------
 REACHES          70 TO    59    70 TO    69    70 TO    71
                  70 TO    81
 -----------------------------------------------------------

 -----------------------------------------------------------
 REACH  =    71
               -----------------CONNECTIONS-----------------
                            1              2              3
                            4
 -----------------------------------------------------------
 REACHES          71 TO    60    71 TO    70    71 TO    72
                  71 TO    82
 -----------------------------------------------------------

 -----------------------------------------------------------
 REACH  =    72
               -----------------CONNECTIONS-----------------
                            1              2              3
                            4
 -----------------------------------------------------------
 REACHES          72 TO    61    72 TO    71    72 TO    73
                  72 TO    83
 -----------------------------------------------------------

 -----------------------------------------------------------
 REACH  =    73
               -----------------CONNECTIONS-----------------
                            1              2              3
                            4
 -----------------------------------------------------------
 REACHES          73 TO    62    73 TO    72    73 TO    74
                  73 TO    84
 -----------------------------------------------------------

 -----------------------------------------------------------
 REACH  =    74
               -----------------CONNECTIONS-----------------
                            1              2              3
                            4
 -----------------------------------------------------------
 REACHES          74 TO    63    74 TO    73    74 TO    75
                  74 TO    85
 -----------------------------------------------------------

 -----------------------------------------------------------
 REACH  =    75
               -----------------CONNECTIONS-----------------
                            1              2              3
                            4
 -----------------------------------------------------------
 REACHES          75 TO    64    75 TO    74    75 TO    76
                  75 TO    86
 -----------------------------------------------------------

 -----------------------------------------------------------
 REACH  =    76
               -----------------CONNECTIONS-----------------
                            1              2              3
                            4
 -----------------------------------------------------------
 REACHES          76 TO    65    76 TO    75    76 TO    77
                  76 TO    87
 -----------------------------------------------------------

 -----------------------------------------------------------
 REACH  =    77
               -----------------CONNECTIONS-----------------
                            1              2              3
 -----------------------------------------------------------
 REACHES          77 TO    66    77 TO    76    77 TO    88
 -----------------------------------------------------------

 -----------------------------------------------------------
 REACH  =    78
               -----------------CONNECTIONS-----------------
                            1              2              3
 -----------------------------------------------------------
 REACHES          78 TO    67    78 TO    79    78 TO    89
 -----------------------------------------------------------

 -----------------------------------------------------------
 REACH  =    79
               -----------------CONNECTIONS-----------------
                            1              2              3
                            4
 -----------------------------------------------------------
 REACHES          79 TO    68    79 TO    78    79 TO    80
                  79 TO    90
 -----------------------------------------------------------

 -----------------------------------------------------------
 REACH  =    80
               -----------------CONNECTIONS-----------------
                            1              2              3
                            4
 -----------------------------------------------------------
 REACHES          80 TO    69    80 TO    79    80 TO    81
                  80 TO    91
 -----------------------------------------------------------

 -----------------------------------------------------------
 REACH  =    81
               -----------------CONNECTIONS-----------------
                            1              2              3
                            4
 -----------------------------------------------------------
 REACHES          81 TO    70    81 TO    80    81 TO    82
                  81 TO    92
 -----------------------------------------------------------

 -----------------------------------------------------------
 REACH  =    82
               -----------------CONNECTIONS-----------------
                            1              2              3
                            4
 -----------------------------------------------------------
 REACHES          82 TO    71    82 TO    81    82 TO    83
                  82 TO    93
 -----------------------------------------------------------

 -----------------------------------------------------------
 REACH  =    83
               -----------------CONNECTIONS-----------------
                            1              2              3
                            4
 -----------------------------------------------------------
 REACHES          83 TO    72    83 TO    82    83 TO    84
                  83 TO    94
 -----------------------------------------------------------

 -----------------------------------------------------------
 REACH  =    84
               -----------------CONNECTIONS-----------------
                            1              2              3
                            4
 -----------------------------------------------------------
 REACHES          84 TO    73    84 TO    83    84 TO    85
                  84 TO    95
 -----------------------------------------------------------

 -----------------------------------------------------------
 REACH  =    85
               -----------------CONNECTIONS-----------------
                            1              2              3
                            4
 -----------------------------------------------------------
 REACHES          85 TO    74    85 TO    84    85 TO    86
                  85 TO    96
 -----------------------------------------------------------

 -----------------------------------------------------------
 REACH  =    86
               -----------------CONNECTIONS-----------------
                            1              2              3
                            4
 -----------------------------------------------------------
 REACHES          86 TO    75    86 TO    85    86 TO    87
                  86 TO    97
 -----------------------------------------------------------

 -----------------------------------------------------------
 REACH  =    87
               -----------------CONNECTIONS-----------------
                            1              2              3
                            4
 -----------------------------------------------------------
 REACHES          87 TO    76    87 TO    86    87 TO    88
                  87 TO    98
 -----------------------------------------------------------

 -----------------------------------------------------------
 REACH  =    88
               -----------------CONNECTIONS-----------------
                            1              2              3
 -----------------------------------------------------------
 REACHES          88 TO    77    88 TO    87    88 TO    99
 -----------------------------------------------------------

 -----------------------------------------------------------
 REACH  =    89
               -----------------CONNECTIONS-----------------
                            1              2              3
 -----------------------------------------------------------
 REACHES          89 TO    78    89 TO    90    89 TO   100
 -----------------------------------------------------------

 -----------------------------------------------------------
 REACH  =    90
               -----------------CONNECTIONS-----------------
                            1              2              3
                            4
 -----------------------------------------------------------
 REACHES          90 TO    79    90 TO    89    90 TO    91
                  90 TO   101
 -----------------------------------------------------------

 -----------------------------------------------------------
 REACH  =    91
               -----------------CONNECTIONS-----------------
                            1              2              3
                            4
 -----------------------------------------------------------
 REACHES          91 TO    80    91 TO    90    91 TO    92
                  91 TO   102
 -----------------------------------------------------------

 -----------------------------------------------------------
 REACH  =    92
               -----------------CONNECTIONS-----------------
                            1              2              3
                            4
 -----------------------------------------------------------
 REACHES          92 TO    81    92 TO    91    92 TO    93
                  92 TO   103
 -----------------------------------------------------------

 -----------------------------------------------------------
 REACH  =    93
               -----------------CONNECTIONS-----------------
                            1              2              3
                            4
 -----------------------------------------------------------
 REACHES          93 TO    82    93 TO    92    93 TO    94
                  93 TO   104
 -----------------------------------------------------------

 -----------------------------------------------------------
 REACH  =    94
               -----------------CONNECTIONS-----------------
                            1              2              3
                            4
 -----------------------------------------------------------
 REACHES          94 TO    83    94 TO    93    94 TO    95
                  94 TO   105
 -----------------------------------------------------------

 -----------------------------------------------------------
 REACH  =    95
               -----------------CONNECTIONS-----------------
                            1              2              3
                            4
 -----------------------------------------------------------
 REACHES          95 TO    84    95 TO    94    95 TO    96
                  95 TO   106
 -----------------------------------------------------------

 -----------------------------------------------------------
 REACH  =    96
               -----------------CONNECTIONS-----------------
                            1              2              3
                            4
 -----------------------------------------------------------
 REACHES          96 TO    85    96 TO    95    96 TO    97
                  96 TO   107
 -----------------------------------------------------------

 -----------------------------------------------------------
 REACH  =    97
               -----------------CONNECTIONS-----------------
                            1              2              3
                            4
 -----------------------------------------------------------
 REACHES          97 TO    86    97 TO    96    97 TO    98
                  97 TO   108
 -----------------------------------------------------------

 -----------------------------------------------------------
 REACH  =    98
               -----------------CONNECTIONS-----------------
                            1              2              3
                            4
 -----------------------------------------------------------
 REACHES          98 TO    87    98 TO    97    98 TO    99
                  98 TO   109
 -----------------------------------------------------------

 -----------------------------------------------------------
 REACH  =    99
               -----------------CONNECTIONS-----------------
                            1              2              3
 -----------------------------------------------------------
 REACHES          99 TO    88    99 TO    98    99 TO   110
 -----------------------------------------------------------

 -----------------------------------------------------------
 REACH  =   100
               -----------------CONNECTIONS-----------------
                            1              2              3
 -----------------------------------------------------------
 REACHES         100 TO    89   100 TO   101   100 TO   111
 -----------------------------------------------------------

 -----------------------------------------------------------
 REACH  =   101
               -----------------CONNECTIONS-----------------
                            1              2              3
                            4
 -----------------------------------------------------------
 REACHES         101 TO    90   101 TO   100   101 TO   102
                 101 TO   112
 -----------------------------------------------------------

 -----------------------------------------------------------
 REACH  =   102
               -----------------CONNECTIONS-----------------
                            1              2              3
                            4
 -----------------------------------------------------------
 REACHES         102 TO    91   102 TO   101   102 TO   103
                 102 TO   113
 -----------------------------------------------------------

 -----------------------------------------------------------
 REACH  =   103
               -----------------CONNECTIONS-----------------
                            1              2              3
                            4
 -----------------------------------------------------------
 REACHES         103 TO    92   103 TO   102   103 TO   104
                 103 TO   114
 -----------------------------------------------------------

 -----------------------------------------------------------
 REACH  =   104
               -----------------CONNECTIONS-----------------
                            1              2              3
                            4
 -----------------------------------------------------------
 REACHES         104 TO    93   104 TO   103   104 TO   105
                 104 TO   115
 -----------------------------------------------------------

 -----------------------------------------------------------
 REACH  =   105
               -----------------CONNECTIONS-----------------
                            1              2              3
                            4
 -----------------------------------------------------------
 REACHES         105 TO    94   105 TO   104   105 TO   106
                 105 TO   116
 -----------------------------------------------------------

 -----------------------------------------------------------
 REACH  =   106
               -----------------CONNECTIONS-----------------
                            1              2              3
                            4
 -----------------------------------------------------------
 REACHES         106 TO    95   106 TO   105   106 TO   107
                 106 TO   117
 -----------------------------------------------------------

 -----------------------------------------------------------
 REACH  =   107
               -----------------CONNECTIONS-----------------
                            1              2              3
                            4
 -----------------------------------------------------------
 REACHES         107 TO    96   107 TO   106   107 TO   108
                 107 TO   118
 -----------------------------------------------------------

 -----------------------------------------------------------
 REACH  =   108
               -----------------CONNECTIONS-----------------
                            1              2              3
                            4
 -----------------------------------------------------------
 REACHES         108 TO    97   108 TO   107   108 TO   109
                 108 TO   119
 -----------------------------------------------------------

 -----------------------------------------------------------
 REACH  =   109
               -----------------CONNECTIONS-----------------
                            1              2              3
                            4
 -----------------------------------------------------------
 REACHES         109 TO    98   109 TO   108   109 TO   110
                 109 TO   120
 -----------------------------------------------------------

 -----------------------------------------------------------
 REACH  =   110
               -----------------CONNECTIONS-----------------
                            1              2              3
 -----------------------------------------------------------
 REACHES         110 TO    99   110 TO   109   110 TO   121
 -----------------------------------------------------------

 -----------------------------------------------------------
 REACH  =   111
               -----------------CONNECTIONS-----------------
                            1              2
 -----------------------------------------------------------
 REACHES         111 TO   100   111 TO   112
 -----------------------------------------------------------

 -----------------------------------------------------------
 REACH  =   112
               -----------------CONNECTIONS-----------------
                            1              2              3
 -----------------------------------------------------------
 REACHES         112 TO   101   112 TO   111   112 TO   113
 -----------------------------------------------------------

 -----------------------------------------------------------
 REACH  =   113
               -----------------CONNECTIONS-----------------
                            1              2              3
 -----------------------------------------------------------
 REACHES         113 TO   102   113 TO   112   113 TO   114
 -----------------------------------------------------------

 -----------------------------------------------------------
 REACH  =   114
               -----------------CONNECTIONS-----------------
                            1              2              3
 -----------------------------------------------------------
 REACHES         114 TO   103   114 TO   113   114 TO   115
 -----------------------------------------------------------

 -----------------------------------------------------------
 REACH  =   115
               -----------------CONNECTIONS-----------------
                            1              2              3
 -----------------------------------------------------------
 REACHES         115 TO   104   115 TO   114   115 TO   116
 -----------------------------------------------------------

 -----------------------------------------------------------
 REACH  =   116
               -----------------CONNECTIONS-----------------
                            1              2              3
 -----------------------------------------------------------
 REACHES         116 TO   105   116 TO   115   116 TO   117
 -----------------------------------------------------------

 -----------------------------------------------------------
 REACH  =   117
               -----------------CONNECTIONS-----------------
                            1              2              3
 -----------------------------------------------------------
 REACHES         117 TO   106   117 TO   116   117 TO   118
 -----------------------------------------------------------

 -----------------------------------------------------------
 REACH  =   118
               -----------------CONNECTIONS-----------------
                            1              2              3
 -----------------------------------------------------------
 REACHES         118 TO   107   118 TO   117   118 TO   119
 -----------------------------------------------------------

 -----------------------------------------------------------
 REACH  =   119
               -----------------CONNECTIONS-----------------
                            1              2              3
 -----------------------------------------------------------
 REACHES         119 TO   108   119 TO   118   119 TO   120
 -----------------------------------------------------------

 -----------------------------------------------------------
 REACH  =   120
               -----------------CONNECTIONS-----------------
                            1              2              3
 -----------------------------------------------------------
 REACHES         120 TO   109   120 TO   119   120 TO   121
 -----------------------------------------------------------

 -----------------------------------------------------------
 REACH  =   121
               -----------------CONNECTIONS-----------------
                            1              2
 -----------------------------------------------------------
 REACHES         121 TO   110   121 TO   120
 -----------------------------------------------------------


 TIME-INVARIANT SURFACE-WATER ROUTING REACH DATA
  REACH IROUTETYPE SOLUTION METHOD      IRGNUM    IRG    LAY    ROW    COL       DLEN
 --------------------------------------------------------------------------------------------------
      1          3 DIFFUSIVE-WAVE            1      1      1      1      1   500.    
      2          3 DIFFUSIVE-WAVE            2      2      1      2      1   500.    
      3          3 DIFFUSIVE-WAVE            3      3      1      3      1   500.    
      4          3 DIFFUSIVE-WAVE            4      4      1      4      1   500.    
      5          3 DIFFUSIVE-WAVE            5      5      1      5      1   500.    
      6          3 DIFFUSIVE-WAVE            6      6      1      6      1   500.    
      7          3 DIFFUSIVE-WAVE            7      7      1      7      1   500.    
      8          3 DIFFUSIVE-WAVE            8      8      1      8      1   500.    
      9          3 DIFFUSIVE-WAVE            9      9      1      9      1   500.    
     10          3 DIFFUSIVE-WAVE           10     10      1     10      1   500.    
     11          3 DIFFUSIVE-WAVE           11     11      1     11      1   500.    
     12          3 DIFFUSIVE-WAVE           12     12      1      1      2   500.    
     13          3 DIFFUSIVE-WAVE           13     13      1      2      2   500.    
     14          3 DIFFUSIVE-WAVE           14     14      1      3      2   500.    
     15          3 DIFFUSIVE-WAVE           15     15      1      4      2   500.    
     16          3 DIFFUSIVE-WAVE           16     16      1      5      2   500.    
     17          3 DIFFUSIVE-WAVE           17     17      1      6      2   500.    
     18          3 DIFFUSIVE-WAVE           18     18      1      7      2   500.    
     19          3 DIFFUSIVE-WAVE           19     19      1      8      2   500.    
     20          3 DIFFUSIVE-WAVE           20     20      1      9      2   500.    
     21          3 DIFFUSIVE-WAVE           21     21      1     10      2   500.    
     22          3 DIFFUSIVE-WAVE           22     22      1     11      2   500.    
     23          3 DIFFUSIVE-WAVE           23     23      1      1      3   500.    
     24          3 DIFFUSIVE-WAVE           24     24      1      2      3   500.    
     25          3 DIFFUSIVE-WAVE           25     25      1      3      3   500.    
     26          3 DIFFUSIVE-WAVE           26     26      1      4      3   500.    
     27          3 DIFFUSIVE-WAVE           27     27      1      5      3   500.    
     28          3 DIFFUSIVE-WAVE           28     28      1      6      3   500.    
     29          3 DIFFUSIVE-WAVE           29     29      1      7      3   500.    
     30          3 DIFFUSIVE-WAVE           30     30      1      8      3   500.    
     31          3 DIFFUSIVE-WAVE           31     31      1      9      3   500.    
     32          3 DIFFUSIVE-WAVE           32     32      1     10      3   500.    
     33          3 DIFFUSIVE-WAVE           33     33      1     11      3   500.    
     34          3 DIFFUSIVE-WAVE           34     34      1      1      4   500.    
     35          3 DIFFUSIVE-WAVE           35     35      1      2      4   500.    
     36          3 DIFFUSIVE-WAVE           36     36      1      3      4   500.    
     37          3 DIFFUSIVE-WAVE           37     37      1      4      4   500.    
     38          3 DIFFUSIVE-WAVE           38     38      1      5      4   500.    
     39          3 DIFFUSIVE-WAVE           39     39      1      6      4   500.    
     40          3 DIFFUSIVE-WAVE           40     40      1      7      4   500.    
     41          3 DIFFUSIVE-WAVE           41     41      1      8      4   500.    
     42          3 DIFFUSIVE-WAVE           42     42      1      9      4   500.    
     43          3 DIFFUSIVE-WAVE           43     43      1     10      4   500.    
     44          3 DIFFUSIVE-WAVE           44     44      1     11      4   500.    
     45          3 DIFFUSIVE-WAVE           45     45      1      1      5   500.    
     46          3 DIFFUSIVE-WAVE           46     46      1      2      5   500.    
     47          3 DIFFUSIVE-WAVE           47     47      1      3      5   500.    
     48          3 DIFFUSIVE-WAVE           48     48      1      4      5   500.    
     49          3 DIFFUSIVE-WAVE           49     49      1      5      5   500.    
     50          3 DIFFUSIVE-WAVE           50     50      1      6      5   500.    
     51          3 DIFFUSIVE-WAVE           51     51      1      7      5   500.    
     52          3 DIFFUSIVE-WAVE           52     52      1      8      5   500.    
     53          3 DIFFUSIVE-WAVE           53     53      1      9      5   500.    
     54          3 DIFFUSIVE-WAVE           54     54      1     10      5   500.    
     55          3 DIFFUSIVE-WAVE           55     55      1     11      5   500.    
     56          3 DIFFUSIVE-WAVE           56     56      1      1      6   500.    
     57          3 DIFFUSIVE-WAVE           57     57      1      2      6   500.    
     58          3 DIFFUSIVE-WAVE           58     58      1      3      6   500.    
     59          3 DIFFUSIVE-WAVE           59     59      1      4      6   500.    
     60          3 DIFFUSIVE-WAVE           60     60      1      5      6   500.    
     61          3 DIFFUSIVE-WAVE           61     61      1      6      6   500.    
     62          3 DIFFUSIVE-WAVE           62     62      1      7      6   500.    
     63          3 DIFFUSIVE-WAVE           63     63      1      8      6   500.    
     64          3 DIFFUSIVE-WAVE           64     64      1      9      6   500.    
     65          3 DIFFUSIVE-WAVE           65     65      1     10      6   500.    
     66          3 DIFFUSIVE-WAVE           66     66      1     11      6   500.    
     67          3 DIFFUSIVE-WAVE           67     67      1      1      7   500.    
     68          3 DIFFUSIVE-WAVE           68     68      1      2      7   500.    
     69          3 DIFFUSIVE-WAVE           69     69      1      3      7   500.    
     70          3 DIFFUSIVE-WAVE           70     70      1      4      7   500.    
     71          3 DIFFUSIVE-WAVE           71     71      1      5      7   500.    
     72          3 DIFFUSIVE-WAVE           72     72      1      6      7   500.    
     73          3 DIFFUSIVE-WAVE           73     73      1      7      7   500.    
     74          3 DIFFUSIVE-WAVE           74     74      1      8      7   500.    
     75          3 DIFFUSIVE-WAVE           75     75      1      9      7   500.    
     76          3 DIFFUSIVE-WAVE           76     76      1     10      7   500.    
     77          3 DIFFUSIVE-WAVE           77     77      1     11      7   500.    
     78          3 DIFFUSIVE-WAVE           78     78      1      1      8   500.    
     79          3 DIFFUSIVE-WAVE           79     79      1      2      8   500.    
     80          3 DIFFUSIVE-WAVE           80     80      1      3      8   500.    
     81          3 DIFFUSIVE-WAVE           81     81      1      4      8   500.    
     82          3 DIFFUSIVE-WAVE           82     82      1      5      8   500.    
     83          3 DIFFUSIVE-WAVE           83     83      1      6      8   500.    
     84          3 DIFFUSIVE-WAVE           84     84      1      7      8   500.    
     85          3 DIFFUSIVE-WAVE           85     85      1      8      8   500.    
     86          3 DIFFUSIVE-WAVE           86     86      1      9      8   500.    
     87          3 DIFFUSIVE-WAVE           87     87      1     10      8   500.    
     88          3 DIFFUSIVE-WAVE           88     88      1     11      8   500.    
     89          3 DIFFUSIVE-WAVE           89     89      1      1      9   500.    
     90          3 DIFFUSIVE-WAVE           90     90      1      2      9   500.    
     91          3 DIFFUSIVE-WAVE           91     91      1      3      9   500.    
     92          3 DIFFUSIVE-WAVE           92     92      1      4      9   500.    
     93          3 DIFFUSIVE-WAVE           93     93      1      5      9   500.    
     94          3 DIFFUSIVE-WAVE           94     94      1      6      9   500.    
     95          3 DIFFUSIVE-WAVE           95     95      1      7      9   500.    
     96          3 DIFFUSIVE-WAVE           96     96      1      8      9   500.    
     97          3 DIFFUSIVE-WAVE           97     97      1      9      9   500.    
     98          3 DIFFUSIVE-WAVE           98     98      1     10      9   500.    
     99          3 DIFFUSIVE-WAVE           99     99      1     11      9   500.    
    100          3 DIFFUSIVE-WAVE          100    100      1      1     10   500.    
    101          3 DIFFUSIVE-WAVE          101    101      1      2     10   500.    
    102          3 DIFFUSIVE-WAVE          102    102      1      3     10   500.    
    103          3 DIFFUSIVE-WAVE          103    103      1      4     10   500.    
    104          3 DIFFUSIVE-WAVE          104    104      1      5     10   500.    
    105          3 DIFFUSIVE-WAVE          105    105      1      6     10   500.    
    106          3 DIFFUSIVE-WAVE          106    106      1      7     10   500.    
    107          3 DIFFUSIVE-WAVE          107    107      1      8     10   500.    
    108          3 DIFFUSIVE-WAVE          108    108      1      9     10   500.    
    109          3 DIFFUSIVE-WAVE          109    109      1     10     10   500.    
    110          3 DIFFUSIVE-WAVE          110    110      1     11     10   500.    
    111          3 DIFFUSIVE-WAVE          111    111      1      1     11   500.    
    112          3 DIFFUSIVE-WAVE          112    112      1      2     11   500.    
    113          3 DIFFUSIVE-WAVE          113    113      1      3     11   500.    
    114          3 DIFFUSIVE-WAVE          114    114      1      4     11   500.    
    115          3 DIFFUSIVE-WAVE          115    115      1      5     11   500.    
    116          3 DIFFUSIVE-WAVE          116    116      1      6     11   500.    
    117          3 DIFFUSIVE-WAVE          117    117      1      7     11   500.    
    118          3 DIFFUSIVE-WAVE          118    118      1      8     11   500.    
    119          3 DIFFUSIVE-WAVE          119    119      1      9     11   500.    
    120          3 DIFFUSIVE-WAVE          120    120      1     10     11   500.    
    121          3 DIFFUSIVE-WAVE          121    121      1     11     11   500.    


 SWR REACH GROUPS: REACHES IN REACH GROUP
 ---------------------------------------------------------------------
 REACH GROUP =     1 IRGNUM =     1    REACHES     1
 REACH GROUP =     2 IRGNUM =     2    REACHES     2
 REACH GROUP =     3 IRGNUM =     3    REACHES     3
 REACH GROUP =     4 IRGNUM =     4    REACHES     4
 REACH GROUP =     5 IRGNUM =     5    REACHES     5
 REACH GROUP =     6 IRGNUM =     6    REACHES     6
 REACH GROUP =     7 IRGNUM =     7    REACHES     7
 REACH GROUP =     8 IRGNUM =     8    REACHES     8
 REACH GROUP =     9 IRGNUM =     9    REACHES     9
 REACH GROUP =    10 IRGNUM =    10    REACHES    10
 REACH GROUP =    11 IRGNUM =    11    REACHES    11
 REACH GROUP =    12 IRGNUM =    12    REACHES    12
 REACH GROUP =    13 IRGNUM =    13    REACHES    13
 REACH GROUP =    14 IRGNUM =    14    REACHES    14
 REACH GROUP =    15 IRGNUM =    15    REACHES    15
 REACH GROUP =    16 IRGNUM =    16    REACHES    16
 REACH GROUP =    17 IRGNUM =    17    REACHES    17
 REACH GROUP =    18 IRGNUM =    18    REACHES    18
 REACH GROUP =    19 IRGNUM =    19    REACHES    19
 REACH GROUP =    20 IRGNUM =    20    REACHES    20
 REACH GROUP =    21 IRGNUM =    21    REACHES    21
 REACH GROUP =    22 IRGNUM =    22    REACHES    22
 REACH GROUP =    23 IRGNUM =    23    REACHES    23
 REACH GROUP =    24 IRGNUM =    24    REACHES    24
 REACH GROUP =    25 IRGNUM =    25    REACHES    25
 REACH GROUP =    26 IRGNUM =    26    REACHES    26
 REACH GROUP =    27 IRGNUM =    27    REACHES    27
 REACH GROUP =    28 IRGNUM =    28    REACHES    28
 REACH GROUP =    29 IRGNUM =    29    REACHES    29
 REACH GROUP =    30 IRGNUM =    30    REACHES    30
 REACH GROUP =    31 IRGNUM =    31    REACHES    31
 REACH GROUP =    32 IRGNUM =    32    REACHES    32
 REACH GROUP =    33 IRGNUM =    33    REACHES    33
 REACH GROUP =    34 IRGNUM =    34    REACHES    34
 REACH GROUP =    35 IRGNUM =    35    REACHES    35
 REACH GROUP =    36 IRGNUM =    36    REACHES    36
 REACH GROUP =    37 IRGNUM =    37    REACHES    37
 REACH GROUP =    38 IRGNUM =    38    REACHES    38
 REACH GROUP =    39 IRGNUM =    39    REACHES    39
 REACH GROUP =    40 IRGNUM =    40    REACHES    40
 REACH GROUP =    41 IRGNUM =    41    REACHES    41
 REACH GROUP =    42 IRGNUM =    42    REACHES    42
 REACH GROUP =    43 IRGNUM =    43    REACHES    43
 REACH GROUP =    44 IRGNUM =    44    REACHES    44
 REACH GROUP =    45 IRGNUM =    45    REACHES    45
 REACH GROUP =    46 IRGNUM =    46    REACHES    46
 REACH GROUP =    47 IRGNUM =    47    REACHES    47
 REACH GROUP =    48 IRGNUM =    48    REACHES    48
 REACH GROUP =    49 IRGNUM =    49    REACHES    49
 REACH GROUP =    50 IRGNUM =    50    REACHES    50
 REACH GROUP =    51 IRGNUM =    51    REACHES    51
 REACH GROUP =    52 IRGNUM =    52    REACHES    52
 REACH GROUP =    53 IRGNUM =    53    REACHES    53
 REACH GROUP =    54 IRGNUM =    54    REACHES    54
 REACH GROUP =    55 IRGNUM =    55    REACHES    55
 REACH GROUP =    56 IRGNUM =    56    REACHES    56
 REACH GROUP =    57 IRGNUM =    57    REACHES    57
 REACH GROUP =    58 IRGNUM =    58    REACHES    58
 REACH GROUP =    59 IRGNUM =    59    REACHES    59
 REACH GROUP =    60 IRGNUM =    60    REACHES    60
 REACH GROUP =    61 IRGNUM =    61    REACHES    61
 REACH GROUP =    62 IRGNUM =    62    REACHES    62
 REACH GROUP =    63 IRGNUM =    63    REACHES    63
 REACH GROUP =    64 IRGNUM =    64    REACHES    64
 REACH GROUP =    65 IRGNUM =    65    REACHES    65
 REACH GROUP =    66 IRGNUM =    66    REACHES    66
 REACH GROUP =    67 IRGNUM =    67    REACHES    67
 REACH GROUP =    68 IRGNUM =    68    REACHES    68
 REACH GROUP =    69 IRGNUM =    69    REACHES    69
 REACH GROUP =    70 IRGNUM =    70    REACHES    70
 REACH GROUP =    71 IRGNUM =    71    REACHES    71
 REACH GROUP =    72 IRGNUM =    72    REACHES    72
 REACH GROUP =    73 IRGNUM =    73    REACHES    73
 REACH GROUP =    74 IRGNUM =    74    REACHES    74
 REACH GROUP =    75 IRGNUM =    75    REACHES    75
 REACH GROUP =    76 IRGNUM =    76    REACHES    76
 REACH GROUP =    77 IRGNUM =    77    REACHES    77
 REACH GROUP =    78 IRGNUM =    78    REACHES    78
 REACH GROUP =    79 IRGNUM =    79    REACHES    79
 REACH GROUP =    80 IRGNUM =    80    REACHES    80
 REACH GROUP =    81 IRGNUM =    81    REACHES    81
 REACH GROUP =    82 IRGNUM =    82    REACHES    82
 REACH GROUP =    83 IRGNUM =    83    REACHES    83
 REACH GROUP =    84 IRGNUM =    84    REACHES    84
 REACH GROUP =    85 IRGNUM =    85    REACHES    85
 REACH GROUP =    86 IRGNUM =    86    REACHES    86
 REACH GROUP =    87 IRGNUM =    87    REACHES    87
 REACH GROUP =    88 IRGNUM =    88    REACHES    88
 REACH GROUP =    89 IRGNUM =    89    REACHES    89
 REACH GROUP =    90 IRGNUM =    90    REACHES    90
 REACH GROUP =    91 IRGNUM =    91    REACHES    91
 REACH GROUP =    92 IRGNUM =    92    REACHES    92
 REACH GROUP =    93 IRGNUM =    93    REACHES    93
 REACH GROUP =    94 IRGNUM =    94    REACHES    94
 REACH GROUP =    95 IRGNUM =    95    REACHES    95
 REACH GROUP =    96 IRGNUM =    96    REACHES    96
 REACH GROUP =    97 IRGNUM =    97    REACHES    97
 REACH GROUP =    98 IRGNUM =    98    REACHES    98
 REACH GROUP =    99 IRGNUM =    99    REACHES    99
 REACH GROUP =   100 IRGNUM =   100    REACHES   100
 REACH GROUP =   101 IRGNUM =   101    REACHES   101
 REACH GROUP =   102 IRGNUM =   102    REACHES   102
 REACH GROUP =   103 IRGNUM =   103    REACHES   103
 REACH GROUP =   104 IRGNUM =   104    REACHES   104
 REACH GROUP =   105 IRGNUM =   105    REACHES   105
 REACH GROUP =   106 IRGNUM =   106    REACHES   106
 REACH GROUP =   107 IRGNUM =   107    REACHES   107
 REACH GROUP =   108 IRGNUM =   108    REACHES   108
 REACH GROUP =   109 IRGNUM =   109    REACHES   109
 REACH GROUP =   110 IRGNUM =   110    REACHES   110
 REACH GROUP =   111 IRGNUM =   111    REACHES   111
 REACH GROUP =   112 IRGNUM =   112    REACHES   112
 REACH GROUP =   113 IRGNUM =   113    REACHES   113
 REACH GROUP =   114 IRGNUM =   114    REACHES   114
 REACH GROUP =   115 IRGNUM =   115    REACHES   115
 REACH GROUP =   116 IRGNUM =   116    REACHES   116
 REACH GROUP =   117 IRGNUM =   117    REACHES   117
 REACH GROUP =   118 IRGNUM =   118    REACHES   118
 REACH GROUP =   119 IRGNUM =   119    REACHES   119
 REACH GROUP =   120 IRGNUM =   120    REACHES   120
[...]

 -------------------------------------------------------------------------------
                             SWR1 OUTPUT PRINT TIMES
                        STRESS PERIOD   25   TIME STEP  4294
 --------------- --------------- --------------- --------------- ---------------
     0.60168E+06                                                                
 -------------------------------------------------------------------------------
 
 SOLVING FOR HEAD 
 INITIAL HNEW IS AN EXACT SOLUTION.

 NO OUTPUT CONTROL FOR STRESS PERIOD   25   TIME STEP 4295

 -------------------------------------------------------------------------------
                             SWR1 OUTPUT PRINT TIMES
                        STRESS PERIOD   25   TIME STEP  4295
 --------------- --------------- --------------- --------------- ---------------
     0.60180E+06                                                                
 -------------------------------------------------------------------------------
 
 SOLVING FOR HEAD 
 INITIAL HNEW IS AN EXACT SOLUTION.

 NO OUTPUT CONTROL FOR STRESS PERIOD   25   TIME STEP 4296

 -------------------------------------------------------------------------------
                             SWR1 OUTPUT PRINT TIMES
                        STRESS PERIOD   25   TIME STEP  4296
 --------------- --------------- --------------- --------------- ---------------
     0.60192E+06                                                                
 -------------------------------------------------------------------------------
 
 SOLVING FOR HEAD 
 INITIAL HNEW IS AN EXACT SOLUTION.

 NO OUTPUT CONTROL FOR STRESS PERIOD   25   TIME STEP 4297

 -------------------------------------------------------------------------------
                             SWR1 OUTPUT PRINT TIMES
                        STRESS PERIOD   25   TIME STEP  4297
 --------------- --------------- --------------- --------------- ---------------
     0.60204E+06                                                                
 -------------------------------------------------------------------------------
 
 SOLVING FOR HEAD 
 INITIAL HNEW IS AN EXACT SOLUTION.

 NO OUTPUT CONTROL FOR STRESS PERIOD   25   TIME STEP 4298

 -------------------------------------------------------------------------------
                             SWR1 OUTPUT PRINT TIMES
                        STRESS PERIOD   25   TIME STEP  4298
 --------------- --------------- --------------- --------------- ---------------
     0.60216E+06                                                                
 -------------------------------------------------------------------------------
 
 SOLVING FOR HEAD 
 INITIAL HNEW IS AN EXACT SOLUTION.

 NO OUTPUT CONTROL FOR STRESS PERIOD   25   TIME STEP 4299

 -------------------------------------------------------------------------------
                             SWR1 OUTPUT PRINT TIMES
                        STRESS PERIOD   25   TIME STEP  4299
 --------------- --------------- --------------- --------------- ---------------
     0.60228E+06                                                                
 -------------------------------------------------------------------------------
 
 SOLVING FOR HEAD 
 INITIAL HNEW IS AN EXACT SOLUTION.

 NO OUTPUT CONTROL FOR STRESS PERIOD   25   TIME STEP 4300

 -------------------------------------------------------------------------------
                             SWR1 OUTPUT PRINT TIMES
                        STRESS PERIOD   25   TIME STEP  4300
 --------------- --------------- --------------- --------------- ---------------
     0.60240E+06                                                                
 -------------------------------------------------------------------------------
 
 SOLVING FOR HEAD 
 INITIAL HNEW IS AN EXACT SOLUTION.

 NO OUTPUT CONTROL FOR STRESS PERIOD   25   TIME STEP 4301

 -------------------------------------------------------------------------------
                             SWR1 OUTPUT PRINT TIMES
                        STRESS PERIOD   25   TIME STEP  4301
 --------------- --------------- --------------- --------------- ---------------
     0.60252E+06                                                                
 -------------------------------------------------------------------------------
 
 SOLVING FOR HEAD 
 INITIAL HNEW IS AN EXACT SOLUTION.

 NO OUTPUT CONTROL FOR STRESS PERIOD   25   TIME STEP 4302

 -------------------------------------------------------------------------------
                             SWR1 OUTPUT PRINT TIMES
                        STRESS PERIOD   25   TIME STEP  4302
 --------------- --------------- --------------- --------------- ---------------
     0.60264E+06                                                                
 -------------------------------------------------------------------------------
 
 SOLVING FOR HEAD 
 INITIAL HNEW IS AN EXACT SOLUTION.

 NO OUTPUT CONTROL FOR STRESS PERIOD   25   TIME STEP 4303

 -------------------------------------------------------------------------------
                             SWR1 OUTPUT PRINT TIMES
                        STRESS PERIOD   25   TIME STEP  4303
 --------------- --------------- --------------- --------------- ---------------
     0.60276E+06                                                                
 -------------------------------------------------------------------------------
 
 SOLVING FOR HEAD 
 INITIAL HNEW IS AN EXACT SOLUTION.

 NO OUTPUT CONTROL FOR STRESS PERIOD   25   TIME STEP 4304

 -------------------------------------------------------------------------------
                             SWR1 OUTPUT PRINT TIMES
                        STRESS PERIOD   25   TIME STEP  4304
 --------------- --------------- --------------- --------------- ---------------
     0.60288E+06                                                                
 -------------------------------------------------------------------------------
 
 SOLVING FOR HEAD 
 INITIAL HNEW IS AN EXACT SOLUTION.

 NO OUTPUT CONTROL FOR STRESS PERIOD   25   TIME STEP 4305

 -------------------------------------------------------------------------------
                             SWR1 OUTPUT PRINT TIMES
                        STRESS PERIOD   25   TIME STEP  4305
 --------------- --------------- --------------- --------------- ---------------
     0.60300E+06                                                                
 -------------------------------------------------------------------------------
 
 SOLVING FOR HEAD 
 INITIAL HNEW IS AN EXACT SOLUTION.

 NO OUTPUT CONTROL FOR STRESS PERIOD   25   TIME STEP 4306

 -------------------------------------------------------------------------------
                             SWR1 OUTPUT PRINT TIMES
                        STRESS PERIOD   25   TIME STEP  4306
 --------------- --------------- --------------- --------------- ---------------
     0.60312E+06                                                                
 -------------------------------------------------------------------------------
 
 SOLVING FOR HEAD 
 INITIAL HNEW IS AN EXACT SOLUTION.

 NO OUTPUT CONTROL FOR STRESS PERIOD   25   TIME STEP 4307

 -------------------------------------------------------------------------------
                             SWR1 OUTPUT PRINT TIMES
                        STRESS PERIOD   25   TIME STEP  4307
 --------------- --------------- --------------- --------------- ---------------
     0.60324E+06                                                                
 -------------------------------------------------------------------------------
 
 SOLVING FOR HEAD 
 INITIAL HNEW IS AN EXACT SOLUTION.

 NO OUTPUT CONTROL FOR STRESS PERIOD   25   TIME STEP 4308

 -------------------------------------------------------------------------------
                             SWR1 OUTPUT PRINT TIMES
                        STRESS PERIOD   25   TIME STEP  4308
 --------------- --------------- --------------- --------------- ---------------
     0.60336E+06                                                                
 -------------------------------------------------------------------------------
 
 SOLVING FOR HEAD 
 INITIAL HNEW IS AN EXACT SOLUTION.

 NO OUTPUT CONTROL FOR STRESS PERIOD   25   TIME STEP 4309

 -------------------------------------------------------------------------------
                             SWR1 OUTPUT PRINT TIMES
                        STRESS PERIOD   25   TIME STEP  4309
 --------------- --------------- --------------- --------------- ---------------
     0.60348E+06                                                                
 -------------------------------------------------------------------------------
 
 SOLVING FOR HEAD 
 INITIAL HNEW IS AN EXACT SOLUTION.

 NO OUTPUT CONTROL FOR STRESS PERIOD   25   TIME STEP 4310

 -------------------------------------------------------------------------------
                             SWR1 OUTPUT PRINT TIMES
                        STRESS PERIOD   25   TIME STEP  4310
 --------------- --------------- --------------- --------------- ---------------
     0.60360E+06                                                                
 -------------------------------------------------------------------------------
 
 SOLVING FOR HEAD 
 INITIAL HNEW IS AN EXACT SOLUTION.

 NO OUTPUT CONTROL FOR STRESS PERIOD   25   TIME STEP 4311

 -------------------------------------------------------------------------------
                             SWR1 OUTPUT PRINT TIMES
                        STRESS PERIOD   25   TIME STEP  4311
 --------------- --------------- --------------- --------------- ---------------
     0.60372E+06                                                                
 -------------------------------------------------------------------------------
 
 SOLVING FOR HEAD 
 INITIAL HNEW IS AN EXACT SOLUTION.

 NO OUTPUT CONTROL FOR STRESS PERIOD   25   TIME STEP 4312

 -------------------------------------------------------------------------------
                             SWR1 OUTPUT PRINT TIMES
                        STRESS PERIOD   25   TIME STEP  4312
 --------------- --------------- --------------- --------------- ---------------
     0.60384E+06                                                                
 -------------------------------------------------------------------------------
 
 SOLVING FOR HEAD 
 INITIAL HNEW IS AN EXACT SOLUTION.

 NO OUTPUT CONTROL FOR STRESS PERIOD   25   TIME STEP 4313

 -------------------------------------------------------------------------------
                             SWR1 OUTPUT PRINT TIMES
                        STRESS PERIOD   25   TIME STEP  4313
 --------------- --------------- --------------- --------------- ---------------
     0.60396E+06                                                                
 -------------------------------------------------------------------------------
 
 SOLVING FOR HEAD 
 INITIAL HNEW IS AN EXACT SOLUTION.

 NO OUTPUT CONTROL FOR STRESS PERIOD   25   TIME STEP 4314

 -------------------------------------------------------------------------------
                             SWR1 OUTPUT PRINT TIMES
                        STRESS PERIOD   25   TIME STEP  4314
 --------------- --------------- --------------- --------------- ---------------
     0.60408E+06                                                                
 -------------------------------------------------------------------------------
 
 SOLVING FOR HEAD 
 INITIAL HNEW IS AN EXACT SOLUTION.

 NO OUTPUT CONTROL FOR STRESS PERIOD   25   TIME STEP 4315

 -------------------------------------------------------------------------------
                             SWR1 OUTPUT PRINT TIMES
                        STRESS PERIOD   25   TIME STEP  4315
 --------------- --------------- --------------- --------------- ---------------
     0.60420E+06                                                                
 -------------------------------------------------------------------------------
 
 SOLVING FOR HEAD 
 INITIAL HNEW IS AN EXACT SOLUTION.

 NO OUTPUT CONTROL FOR STRESS PERIOD   25   TIME STEP 4316

 -------------------------------------------------------------------------------
                             SWR1 OUTPUT PRINT TIMES
                        STRESS PERIOD   25   TIME STEP  4316
 --------------- --------------- --------------- --------------- ---------------
     0.60432E+06                                                                
 -------------------------------------------------------------------------------
 
 SOLVING FOR HEAD 
 INITIAL HNEW IS AN EXACT SOLUTION.

 NO OUTPUT CONTROL FOR STRESS PERIOD   25   TIME STEP 4317

 -------------------------------------------------------------------------------
                             SWR1 OUTPUT PRINT TIMES
                        STRESS PERIOD   25   TIME STEP  4317
 --------------- --------------- --------------- --------------- ---------------
     0.60444E+06                                                                
 -------------------------------------------------------------------------------
 
 SOLVING FOR HEAD 
 INITIAL HNEW IS AN EXACT SOLUTION.

 NO OUTPUT CONTROL FOR STRESS PERIOD   25   TIME STEP 4318

 -------------------------------------------------------------------------------
                             SWR1 OUTPUT PRINT TIMES
                        STRESS PERIOD   25   TIME STEP  4318
 --------------- --------------- --------------- --------------- ---------------
     0.60456E+06                                                                
 -------------------------------------------------------------------------------
 
 SOLVING FOR HEAD 
 INITIAL HNEW IS AN EXACT SOLUTION.

 NO OUTPUT CONTROL FOR STRESS PERIOD   25   TIME STEP 4319

 -------------------------------------------------------------------------------
                             SWR1 OUTPUT PRINT TIMES
                        STRESS PERIOD   25   TIME STEP  4319
 --------------- --------------- --------------- --------------- ---------------
     0.60468E+06                                                                
 -------------------------------------------------------------------------------
 
 SOLVING FOR HEAD 
 INITIAL HNEW IS AN EXACT SOLUTION.

 NO OUTPUT CONTROL FOR STRESS PERIOD   25   TIME STEP 4320

 -------------------------------------------------------------------------------
                             SWR1 OUTPUT PRINT TIMES
                        STRESS PERIOD   25   TIME STEP  4320
 --------------- --------------- --------------- --------------- ---------------
     0.60480E+06                                                                
 -------------------------------------------------------------------------------


                    VOLUMETRIC SURFACE WATER BUDGET FOR ENTIRE MODEL
                    AT END OF TIME STEP  4320 IN STRESS PERIOD   25
  -----------------------------------------------------------------------------------

        CUMULATIVE VOLUMES      L**3       RATES FOR THIS TIME STEP      L**3/T
        ------------------                 ------------------------

              IN:                                      IN:
              ---                                      ---
          LATERAL FLOW  =      687492.8125         LATERAL FLOW  =           0.0000
         UNSAT. RUNOFF  =           0.0000        UNSAT. RUNOFF  =           0.0000
              RAINFALL  =      999987.4375             RAINFALL  =           0.0000
           EVAPORATION  =           0.0000          EVAPORATION  =           0.0000
         REACH-AQ FLOW  =           0.0000        REACH-AQ FLOW  =           0.0000
         EXTERNAL FLOW  =           0.0000        EXTERNAL FLOW  =           0.0000
         BOUNDARY FLOW  =           0.0000        BOUNDARY FLOW  =           0.0000
         CONSTANT FLOW  =           0.0000        CONSTANT FLOW  =           0.0000
               STORAGE  =     2979849.5000              STORAGE  =           0.5060

               TOTAL IN =     4667330.0000              TOTAL IN =           0.5060

             OUT:                                     OUT:
             ----                                     ----
          LATERAL FLOW  =           0.0000         LATERAL FLOW  =           0.0000
         UNSAT. RUNOFF  =           0.0000        UNSAT. RUNOFF  =           0.0000
              RAINFALL  =           0.0000             RAINFALL  =           0.0000
           EVAPORATION  =           0.0000          EVAPORATION  =           0.0000
         REACH-AQ FLOW  =           0.0000        REACH-AQ FLOW  =           0.0000
         EXTERNAL FLOW  =           0.0000        EXTERNAL FLOW  =           0.0000
         BOUNDARY FLOW  =           0.0000        BOUNDARY FLOW  =           0.0000
         CONSTANT FLOW  =     1924197.3750        CONSTANT FLOW  =           0.5059
               STORAGE  =     2743556.2500              STORAGE  =           0.0000

              TOTAL OUT =     4667753.5000             TOTAL OUT =           0.5059

               IN - OUT =        -423.5000              IN - OUT =       1.3596E-04

    PERCENT DISCREPANCY =          -0.01     PERCENT DISCREPANCY =           0.03

1
  VOLUMETRIC BUDGET FOR ENTIRE MODEL AT END OF TIME STEP 4320, STRESS PERIOD  25
  ------------------------------------------------------------------------------

     CUMULATIVE VOLUMES      L**3       RATES FOR THIS TIME STEP      L**3/T
     ------------------                 ------------------------

           IN:                                      IN:
           ---                                      ---
             STORAGE =           0.0000               STORAGE =           0.0000
       CONSTANT HEAD =           0.0000         CONSTANT HEAD =           0.0000
         SWR LEAKAGE =           0.0000           SWR LEAKAGE =           0.0000
            SWR GWET =           0.0000              SWR GWET =           0.0000

            TOTAL IN =           0.0000              TOTAL IN =           0.0000

          OUT:                                     OUT:
          ----                                     ----
             STORAGE =           0.0000               STORAGE =           0.0000
       CONSTANT HEAD =           0.0000         CONSTANT HEAD =           0.0000
         SWR LEAKAGE =           0.0000           SWR LEAKAGE =           0.0000
            SWR GWET =           0.0000              SWR GWET =           0.0000

           TOTAL OUT =           0.0000             TOTAL OUT =           0.0000

            IN - OUT =           0.0000              IN - OUT =           0.0000

 PERCENT DISCREPANCY =           0.00     PERCENT DISCREPANCY =           0.00






         TIME SUMMARY AT END OF TIME STEP 4320 IN STRESS PERIOD   25
                    SECONDS     MINUTES      HOURS       DAYS        YEARS
                    -----------------------------------------------------------
   TIME STEP LENGTH  120.00      2.0000     3.33333E-02 1.38889E-03 3.80257E-06
 STRESS PERIOD TIME 5.18400E+05  8640.0      144.00      6.0000     1.64271E-02
         TOTAL TIME 6.04800E+05  10080.      168.00      7.0000     1.91650E-02
1

 Run end date and time (yyyy/mm/dd hh:mm:ss): 2013/01/23 15:55:35
 Elapsed run time: 22.902 Seconds



 SUMMARY OF SWR1 PROCESS EXECUTION TIME
 TOTAL SWR1 EXECUTION TIME:     18.53292     SECONDS
